  
       XFOIL         Version 6.99
  
 Calculated polar for: modairfoil                                      
  
 1 1 Reynolds number fixed          Mach number fixed         
  
 xtrf =   1.000 (top)        1.000 (bottom)  
 Mach =   0.000     Re =     0.400 e 6     Ncrit =   9.000
  
   alpha    CL        CD       CDp       CM     Top_Xtr  Bot_Xtr
  ------ -------- --------- --------- -------- -------- --------
   2.391   0.4000   0.00820   0.00303  -0.0201   0.5674   0.9799
