  
       XFOIL         Version 6.99
  
 Calculated polar for: modairfoil                                      
  
 1 1 Reynolds number fixed          Mach number fixed         
  
 xtrf =   1.000 (top)        1.000 (bottom)  
 Mach =   0.000     Re =     0.400 e 6     Ncrit =   9.000
  
   alpha    CL        CD       CDp       CM     Top_Xtr  Bot_Xtr
  ------ -------- --------- --------- -------- -------- --------
   0.068   0.2000   0.00771   0.00269  -0.0297   0.6301   0.8468
