  
       XFOIL         Version 6.99
  
 Calculated polar for: HQ 0/7 AIRFOIL                                  
  
 1 1 Reynolds number fixed          Mach number fixed         
  
 xtrf =   1.000 (top)        1.000 (bottom)  
 Mach =   0.000     Re =     0.400 e 6     Ncrit =   9.000
  
   alpha    CL        CD       CDp       CM     Top_Xtr  Bot_Xtr
  ------ -------- --------- --------- -------- -------- --------
   0.000  -0.0000   0.00556   0.00162   0.0000   0.8999   0.8998
   0.500   0.0513   0.00559   0.00163   0.0018   0.8641   0.9341
   1.000   0.1156   0.00568   0.00167   0.0005   0.8325   0.9636
   1.500   0.1903   0.00579   0.00172  -0.0034   0.7954   0.9831
   2.000   0.2675   0.00594   0.00177  -0.0078   0.7266   1.0000
   2.500   0.3092   0.00620   0.00177  -0.0050   0.6375   1.0000
   3.000   0.3496   0.00740   0.00195  -0.0024   0.3713   1.0000
   3.500   0.3925   0.00920   0.00256  -0.0011   0.0982   1.0000
   4.000   0.4415   0.01019   0.00330  -0.0002   0.0305   1.0000
   5.000   0.5362   0.01477   0.00843   0.0035   0.0081   1.0000
   5.500   0.5828   0.01941   0.01366   0.0058   0.0084   1.0000
   0.000  -0.0000   0.00556   0.00162   0.0000   0.8999   0.8998
   0.500   0.0513   0.00559   0.00163   0.0018   0.8641   0.9341
   1.000   0.1156   0.00568   0.00167   0.0005   0.8325   0.9636
   1.500   0.1903   0.00579   0.00172  -0.0034   0.7954   0.9831
   2.000   0.2675   0.00594   0.00177  -0.0078   0.7266   1.0000
   2.500   0.3092   0.00620   0.00177  -0.0050   0.6375   1.0000
   3.000   0.3496   0.00740   0.00195  -0.0024   0.3713   1.0000
   3.500   0.3925   0.00920   0.00256  -0.0011   0.0982   1.0000
   4.000   0.4415   0.01019   0.00330  -0.0002   0.0305   1.0000
   5.000   0.5362   0.01477   0.00843   0.0035   0.0081   1.0000
   5.500   0.5828   0.01941   0.01366   0.0058   0.0084   1.0000
   0.000  -0.0000   0.00556   0.00162   0.0000   0.8999   0.8998
   0.500   0.0513   0.00559   0.00163   0.0018   0.8641   0.9341
   1.000   0.1156   0.00568   0.00167   0.0005   0.8325   0.9636
   1.500   0.1903   0.00579   0.00172  -0.0034   0.7954   0.9831
   2.000   0.2675   0.00594   0.00177  -0.0078   0.7266   1.0000
   2.500   0.3092   0.00620   0.00177  -0.0050   0.6375   1.0000
   3.000   0.3496   0.00740   0.00195  -0.0024   0.3713   1.0000
   3.500   0.3925   0.00920   0.00256  -0.0011   0.0982   1.0000
   4.000   0.4415   0.01019   0.00330  -0.0002   0.0305   1.0000
   5.000   0.5362   0.01477   0.00843   0.0035   0.0081   1.0000
   5.500   0.5828   0.01941   0.01366   0.0058   0.0084   1.0000
