  
       XFOIL         Version 6.99
  
 Calculated polar for: HQ 0/9 AIRFOIL                                  
  
 1 1 Reynolds number fixed          Mach number fixed         
  
 xtrf =   1.000 (top)        1.000 (bottom)  
 Mach =   0.000     Re =     0.400 e 6     Ncrit =   9.000
  
   alpha    CL        CD       CDp       CM     Top_Xtr  Bot_Xtr
  ------ -------- --------- --------- -------- -------- --------
   0.000   0.0000   0.00617   0.00182  -0.0000   0.8476   0.8476
   0.500   0.0510   0.00617   0.00182   0.0016   0.8197   0.8735
   1.000   0.1022   0.00616   0.00186   0.0031   0.7936   0.9011
   1.500   0.1556   0.00618   0.00194   0.0041   0.7692   0.9322
   2.000   0.2182   0.00627   0.00199   0.0033   0.7258   0.9604
   2.500   0.2919   0.00643   0.00207  -0.0003   0.6647   0.9815
   3.000   0.3672   0.00699   0.00214  -0.0047   0.5033   0.9964
   3.500   0.4110   0.00846   0.00254  -0.0037   0.2487   1.0000
   4.000   0.4523   0.00982   0.00318  -0.0018   0.0864   1.0000
   4.500   0.4978   0.01113   0.00432  -0.0001   0.0404   1.0000
   5.000   0.5447   0.01244   0.00575   0.0014   0.0305   1.0000
   5.500   0.5954   0.01303   0.00639   0.0020   0.0235   1.0000
   6.500   0.6878   0.01726   0.01110   0.0054   0.0081   1.0000
   7.000   0.7301   0.02165   0.01613   0.0078   0.0076   1.0000
   7.500   0.7579   0.03076   0.02640   0.0115   0.0084   1.0000
   8.000   0.7608   0.04277   0.03944   0.0149   0.0097   1.0000
   0.000   0.0000   0.00617   0.00182  -0.0000   0.8476   0.8476
   0.500   0.0510   0.00617   0.00182   0.0016   0.8197   0.8735
   1.000   0.1022   0.00616   0.00186   0.0031   0.7936   0.9011
   1.500   0.1556   0.00618   0.00194   0.0041   0.7692   0.9322
   2.000   0.2182   0.00627   0.00199   0.0033   0.7258   0.9604
   2.500   0.2919   0.00643   0.00207  -0.0003   0.6647   0.9815
   3.000   0.3672   0.00699   0.00214  -0.0047   0.5033   0.9964
   3.500   0.4110   0.00846   0.00254  -0.0037   0.2487   1.0000
   4.000   0.4523   0.00982   0.00318  -0.0018   0.0864   1.0000
   4.500   0.4978   0.01113   0.00432  -0.0001   0.0404   1.0000
   5.000   0.5447   0.01244   0.00575   0.0014   0.0305   1.0000
   5.500   0.5954   0.01303   0.00639   0.0020   0.0235   1.0000
   6.500   0.6878   0.01726   0.01110   0.0054   0.0081   1.0000
   7.000   0.7301   0.02165   0.01613   0.0078   0.0076   1.0000
   7.500   0.7579   0.03076   0.02640   0.0115   0.0084   1.0000
   8.000   0.7608   0.04277   0.03944   0.0149   0.0097   1.0000
   0.000   0.0000   0.00617   0.00182  -0.0000   0.8476   0.8476
   0.500   0.0510   0.00617   0.00182   0.0016   0.8197   0.8735
   1.000   0.1022   0.00616   0.00186   0.0031   0.7936   0.9011
   1.500   0.1556   0.00618   0.00194   0.0041   0.7692   0.9322
   2.000   0.2182   0.00627   0.00199   0.0033   0.7258   0.9604
   2.500   0.2919   0.00643   0.00207  -0.0003   0.6647   0.9815
   3.000   0.3672   0.00699   0.00214  -0.0047   0.5033   0.9964
   3.500   0.4110   0.00846   0.00254  -0.0037   0.2487   1.0000
   4.000   0.4523   0.00982   0.00318  -0.0018   0.0864   1.0000
   4.500   0.4978   0.01113   0.00432  -0.0001   0.0404   1.0000
   5.000   0.5447   0.01244   0.00575   0.0014   0.0305   1.0000
   5.500   0.5954   0.01303   0.00639   0.0020   0.0235   1.0000
   6.500   0.6878   0.01726   0.01110   0.0054   0.0081   1.0000
   7.000   0.7301   0.02165   0.01613   0.0078   0.0076   1.0000
   7.500   0.7579   0.03076   0.02640   0.0115   0.0084   1.0000
   8.000   0.7608   0.04277   0.03944   0.0149   0.0097   1.0000
