  
       XFOIL         Version 6.99
  
 Calculated polar for: HQ 1.0/10 AIRFOIL                               
  
 1 1 Reynolds number fixed          Mach number fixed         
  
 xtrf =   1.000 (top)        1.000 (bottom)  
 Mach =   0.000     Re =     0.400 e 6     Ncrit =   9.000
  
   alpha    CL        CD       CDp       CM     Top_Xtr  Bot_Xtr
  ------ -------- --------- --------- -------- -------- --------
   0.000   0.1368   0.00705   0.00226  -0.0299   0.7942   0.7931
   0.500   0.1899   0.00705   0.00222  -0.0289   0.7734   0.8170
   1.000   0.2434   0.00699   0.00221  -0.0281   0.7524   0.8364
   1.500   0.2967   0.00698   0.00221  -0.0273   0.7318   0.8589
   2.000   0.3488   0.00692   0.00224  -0.0262   0.7076   0.8840
   2.500   0.4007   0.00690   0.00228  -0.0249   0.6777   0.9163
   3.000   0.4633   0.00696   0.00237  -0.0260   0.6381   0.9567
   3.500   0.5402   0.00721   0.00248  -0.0306   0.5682   0.9895
   4.000   0.5933   0.00780   0.00269  -0.0307   0.4688   1.0000
   4.500   0.6360   0.00881   0.00317  -0.0287   0.3430   1.0000
   5.000   0.6825   0.00973   0.00376  -0.0274   0.2676   1.0000
   5.500   0.7304   0.01056   0.00440  -0.0264   0.2055   1.0000
   6.000   0.7767   0.01162   0.00512  -0.0252   0.1289   1.0000
   6.500   0.8219   0.01285   0.00609  -0.0239   0.0797   1.0000
   7.000   0.8683   0.01391   0.00710  -0.0227   0.0511   1.0000
   7.500   0.9122   0.01529   0.00844  -0.0210   0.0310   1.0000
   8.000   0.9534   0.01699   0.01018  -0.0190   0.0162   1.0000
   9.000   1.0239   0.02152   0.01513  -0.0134   0.0101   1.0000
   9.500   1.0462   0.02602   0.02002  -0.0093   0.0093   1.0000
  10.000   1.0732   0.02957   0.02399  -0.0059   0.0089   1.0000
  10.500   1.0869   0.03431   0.02924  -0.0016   0.0089   1.0000
  11.000   1.0776   0.03962   0.03508   0.0046   0.0089   1.0000
  11.500   1.0524   0.04633   0.04228   0.0089   0.0090   1.0000
  12.000   1.0204   0.05463   0.05102   0.0093   0.0091   1.0000
  12.500   0.9795   0.06614   0.06291   0.0050   0.0092   1.0000
   0.000   0.1368   0.00705   0.00226  -0.0299   0.7942   0.7931
   0.500   0.1899   0.00705   0.00222  -0.0289   0.7734   0.8170
   1.000   0.2434   0.00699   0.00221  -0.0281   0.7524   0.8364
   1.500   0.2967   0.00698   0.00221  -0.0273   0.7318   0.8589
   2.000   0.3488   0.00692   0.00224  -0.0262   0.7076   0.8840
   2.500   0.4007   0.00690   0.00228  -0.0249   0.6777   0.9163
   3.000   0.4633   0.00696   0.00237  -0.0260   0.6381   0.9567
   3.500   0.5402   0.00721   0.00248  -0.0306   0.5682   0.9895
   4.000   0.5933   0.00780   0.00269  -0.0307   0.4688   1.0000
   4.500   0.6360   0.00881   0.00317  -0.0287   0.3430   1.0000
   5.000   0.6825   0.00973   0.00376  -0.0274   0.2676   1.0000
   5.500   0.7304   0.01056   0.00440  -0.0264   0.2055   1.0000
   6.000   0.7767   0.01162   0.00512  -0.0252   0.1289   1.0000
   6.500   0.8219   0.01285   0.00609  -0.0239   0.0797   1.0000
   7.000   0.8683   0.01391   0.00710  -0.0227   0.0511   1.0000
   7.500   0.9122   0.01529   0.00844  -0.0210   0.0310   1.0000
   8.000   0.9534   0.01699   0.01018  -0.0190   0.0162   1.0000
   9.000   1.0239   0.02152   0.01513  -0.0134   0.0101   1.0000
   9.500   1.0462   0.02602   0.02002  -0.0093   0.0093   1.0000
  10.000   1.0732   0.02957   0.02399  -0.0059   0.0089   1.0000
  10.500   1.0869   0.03431   0.02924  -0.0016   0.0089   1.0000
  11.000   1.0776   0.03962   0.03508   0.0046   0.0089   1.0000
  11.500   1.0524   0.04633   0.04228   0.0089   0.0090   1.0000
  12.000   1.0204   0.05463   0.05102   0.0093   0.0091   1.0000
  12.500   0.9795   0.06614   0.06291   0.0050   0.0092   1.0000
   0.000   0.1368   0.00705   0.00226  -0.0299   0.7942   0.7931
   0.500   0.1899   0.00705   0.00222  -0.0289   0.7734   0.8170
   1.000   0.2434   0.00699   0.00221  -0.0281   0.7524   0.8364
   1.500   0.2967   0.00698   0.00221  -0.0273   0.7318   0.8589
   2.000   0.3488   0.00692   0.00224  -0.0262   0.7076   0.8840
   2.500   0.4007   0.00690   0.00228  -0.0249   0.6777   0.9163
   3.000   0.4633   0.00696   0.00237  -0.0260   0.6381   0.9567
   3.500   0.5402   0.00721   0.00248  -0.0306   0.5682   0.9895
   4.000   0.5933   0.00780   0.00269  -0.0307   0.4688   1.0000
   4.500   0.6360   0.00881   0.00317  -0.0287   0.3430   1.0000
   5.000   0.6825   0.00973   0.00376  -0.0274   0.2676   1.0000
   5.500   0.7304   0.01056   0.00440  -0.0264   0.2055   1.0000
   6.000   0.7767   0.01162   0.00512  -0.0252   0.1289   1.0000
   6.500   0.8219   0.01285   0.00609  -0.0239   0.0797   1.0000
   7.000   0.8683   0.01391   0.00710  -0.0227   0.0511   1.0000
   7.500   0.9122   0.01529   0.00844  -0.0210   0.0310   1.0000
   8.000   0.9534   0.01699   0.01018  -0.0190   0.0162   1.0000
   9.000   1.0239   0.02152   0.01513  -0.0134   0.0101   1.0000
   9.500   1.0462   0.02602   0.02002  -0.0093   0.0093   1.0000
  10.000   1.0732   0.02957   0.02399  -0.0059   0.0089   1.0000
  10.500   1.0869   0.03431   0.02924  -0.0016   0.0089   1.0000
  11.000   1.0776   0.03962   0.03508   0.0046   0.0089   1.0000
  11.500   1.0524   0.04633   0.04228   0.0089   0.0090   1.0000
  12.000   1.0204   0.05463   0.05102   0.0093   0.0091   1.0000
  12.500   0.9795   0.06614   0.06291   0.0050   0.0092   1.0000
