  
       XFOIL         Version 6.99
  
 Calculated polar for: HQ 1.0/8 AIRFOIL                                
  
 1 1 Reynolds number fixed          Mach number fixed         
  
 xtrf =   1.000 (top)        1.000 (bottom)  
 Mach =   0.000     Re =     0.400 e 6     Ncrit =   9.000
  
   alpha    CL        CD       CDp       CM     Top_Xtr  Bot_Xtr
  ------ -------- --------- --------- -------- -------- --------
   0.000   0.1346   0.00609   0.00184  -0.0298   0.8533   0.8665
   0.500   0.1847   0.00601   0.00179  -0.0280   0.8275   0.9020
   1.000   0.2419   0.00596   0.00176  -0.0277   0.8025   0.9452
   1.500   0.3182   0.00598   0.00177  -0.0320   0.7765   0.9832
   2.000   0.3826   0.00607   0.00176  -0.0341   0.7436   1.0000
   2.500   0.4319   0.00624   0.00182  -0.0327   0.6986   1.0000
   3.000   0.4818   0.00653   0.00197  -0.0314   0.6357   1.0000
   3.500   0.5304   0.00707   0.00218  -0.0299   0.5291   1.0000
   4.000   0.5762   0.00818   0.00268  -0.0284   0.3665   1.0000
   4.500   0.6226   0.00947   0.00336  -0.0273   0.2237   1.0000
   5.000   0.6695   0.01082   0.00414  -0.0264   0.0984   1.0000
   5.500   0.7163   0.01231   0.00531  -0.0252   0.0321   1.0000
   6.000   0.7578   0.01512   0.00836  -0.0226   0.0112   1.0000
   6.500   0.8015   0.01777   0.01128  -0.0203   0.0101   1.0000
   7.000   0.8441   0.02193   0.01590  -0.0179   0.0100   1.0000
   0.000   0.1346   0.00609   0.00184  -0.0298   0.8533   0.8665
   0.500   0.1847   0.00601   0.00179  -0.0280   0.8275   0.9020
   1.000   0.2419   0.00596   0.00176  -0.0277   0.8025   0.9452
   1.500   0.3182   0.00598   0.00177  -0.0320   0.7765   0.9832
   2.000   0.3826   0.00607   0.00176  -0.0341   0.7436   1.0000
   2.500   0.4319   0.00624   0.00182  -0.0327   0.6986   1.0000
   3.000   0.4818   0.00653   0.00197  -0.0314   0.6357   1.0000
   3.500   0.5304   0.00707   0.00218  -0.0299   0.5291   1.0000
   4.000   0.5762   0.00818   0.00268  -0.0284   0.3665   1.0000
   4.500   0.6226   0.00947   0.00336  -0.0273   0.2237   1.0000
   5.000   0.6695   0.01082   0.00414  -0.0264   0.0984   1.0000
   5.500   0.7163   0.01231   0.00531  -0.0252   0.0321   1.0000
   6.000   0.7578   0.01512   0.00836  -0.0226   0.0112   1.0000
   6.500   0.8015   0.01777   0.01128  -0.0203   0.0101   1.0000
   7.000   0.8441   0.02193   0.01590  -0.0179   0.0100   1.0000
   0.000   0.1346   0.00609   0.00184  -0.0298   0.8533   0.8665
   0.500   0.1847   0.00601   0.00179  -0.0280   0.8275   0.9020
   1.000   0.2419   0.00596   0.00176  -0.0277   0.8025   0.9452
   1.500   0.3182   0.00598   0.00177  -0.0320   0.7765   0.9832
   2.000   0.3826   0.00607   0.00176  -0.0341   0.7436   1.0000
   2.500   0.4319   0.00624   0.00182  -0.0327   0.6986   1.0000
   3.000   0.4818   0.00653   0.00197  -0.0314   0.6357   1.0000
   3.500   0.5304   0.00707   0.00218  -0.0299   0.5291   1.0000
   4.000   0.5762   0.00818   0.00268  -0.0284   0.3665   1.0000
   4.500   0.6226   0.00947   0.00336  -0.0273   0.2237   1.0000
   5.000   0.6695   0.01082   0.00414  -0.0264   0.0984   1.0000
   5.500   0.7163   0.01231   0.00531  -0.0252   0.0321   1.0000
   6.000   0.7578   0.01512   0.00836  -0.0226   0.0112   1.0000
   6.500   0.8015   0.01777   0.01128  -0.0203   0.0101   1.0000
   7.000   0.8441   0.02193   0.01590  -0.0179   0.0100   1.0000
