  
       XFOIL         Version 6.99
  
 Calculated polar for: HQ 1.0/9 AIRFOIL                                
  
 1 1 Reynolds number fixed          Mach number fixed         
  
 xtrf =   1.000 (top)        1.000 (bottom)  
 Mach =   0.000     Re =     0.400 e 6     Ncrit =   9.000
  
   alpha    CL        CD       CDp       CM     Top_Xtr  Bot_Xtr
  ------ -------- --------- --------- -------- -------- --------
   0.000   0.1366   0.00662   0.00204  -0.0301   0.8219   0.8231
   0.500   0.1882   0.00655   0.00201  -0.0287   0.7980   0.8513
   1.000   0.2402   0.00650   0.00198  -0.0275   0.7762   0.8782
   1.500   0.2919   0.00644   0.00199  -0.0261   0.7524   0.9114
   2.000   0.3530   0.00643   0.00202  -0.0268   0.7250   0.9527
   2.500   0.4299   0.00650   0.00207  -0.0313   0.6861   0.9870
   3.000   0.4897   0.00669   0.00212  -0.0324   0.6313   1.0000
   3.500   0.5375   0.00708   0.00229  -0.0309   0.5566   1.0000
   4.000   0.5836   0.00788   0.00262  -0.0292   0.4333   1.0000
   4.500   0.6292   0.00900   0.00318  -0.0279   0.2996   1.0000
   5.000   0.6769   0.01001   0.00386  -0.0269   0.2125   1.0000
   6.000   0.7707   0.01241   0.00557  -0.0248   0.0606   1.0000
   6.500   0.8171   0.01377   0.00688  -0.0235   0.0289   1.0000
   7.000   0.8562   0.01632   0.00955  -0.0208   0.0129   1.0000
   7.500   0.8989   0.01832   0.01178  -0.0187   0.0106   1.0000
   8.000   0.9385   0.02108   0.01482  -0.0163   0.0095   1.0000
   8.500   0.9752   0.02505   0.01927  -0.0136   0.0093   1.0000
   9.000   1.0007   0.03190   0.02695  -0.0096   0.0099   1.0000
   9.500   1.0009   0.04092   0.03692  -0.0043   0.0108   1.0000
  10.000   0.9777   0.04912   0.04575   0.0015   0.0114   1.0000
  10.500   0.9299   0.05755   0.05457   0.0050   0.0121   1.0000
  11.000   0.9013   0.06618   0.06352   0.0017   0.0116   1.0000
   0.000   0.1366   0.00662   0.00204  -0.0301   0.8219   0.8231
   0.500   0.1882   0.00655   0.00201  -0.0287   0.7980   0.8513
   1.000   0.2402   0.00650   0.00198  -0.0275   0.7762   0.8782
   1.500   0.2919   0.00644   0.00199  -0.0261   0.7524   0.9114
   2.000   0.3530   0.00643   0.00202  -0.0268   0.7250   0.9527
   2.500   0.4299   0.00650   0.00207  -0.0313   0.6861   0.9870
   3.000   0.4897   0.00669   0.00212  -0.0324   0.6313   1.0000
   3.500   0.5375   0.00708   0.00229  -0.0309   0.5566   1.0000
   4.000   0.5836   0.00788   0.00262  -0.0292   0.4333   1.0000
   4.500   0.6292   0.00900   0.00318  -0.0279   0.2996   1.0000
   5.000   0.6769   0.01001   0.00386  -0.0269   0.2125   1.0000
   6.000   0.7707   0.01241   0.00557  -0.0248   0.0606   1.0000
   6.500   0.8171   0.01377   0.00688  -0.0235   0.0289   1.0000
   7.000   0.8562   0.01632   0.00955  -0.0208   0.0129   1.0000
   7.500   0.8989   0.01832   0.01178  -0.0187   0.0106   1.0000
   8.000   0.9385   0.02108   0.01482  -0.0163   0.0095   1.0000
   8.500   0.9752   0.02505   0.01927  -0.0136   0.0093   1.0000
   9.000   1.0007   0.03190   0.02695  -0.0096   0.0099   1.0000
   9.500   1.0009   0.04092   0.03692  -0.0043   0.0108   1.0000
  10.000   0.9777   0.04912   0.04575   0.0015   0.0114   1.0000
  10.500   0.9299   0.05755   0.05457   0.0050   0.0121   1.0000
  11.000   0.9013   0.06618   0.06352   0.0017   0.0116   1.0000
   0.000   0.1366   0.00662   0.00204  -0.0301   0.8219   0.8231
   0.500   0.1882   0.00655   0.00201  -0.0287   0.7980   0.8513
   1.000   0.2402   0.00650   0.00198  -0.0275   0.7762   0.8782
   1.500   0.2919   0.00644   0.00199  -0.0261   0.7524   0.9114
   2.000   0.3530   0.00643   0.00202  -0.0268   0.7250   0.9527
   2.500   0.4299   0.00650   0.00207  -0.0313   0.6861   0.9870
   3.000   0.4897   0.00669   0.00212  -0.0324   0.6313   1.0000
   3.500   0.5375   0.00708   0.00229  -0.0309   0.5566   1.0000
   4.000   0.5836   0.00788   0.00262  -0.0292   0.4333   1.0000
   4.500   0.6292   0.00900   0.00318  -0.0279   0.2996   1.0000
   5.000   0.6769   0.01001   0.00386  -0.0269   0.2125   1.0000
   6.000   0.7707   0.01241   0.00557  -0.0248   0.0606   1.0000
   6.500   0.8171   0.01377   0.00688  -0.0235   0.0289   1.0000
   7.000   0.8562   0.01632   0.00955  -0.0208   0.0129   1.0000
   7.500   0.8989   0.01832   0.01178  -0.0187   0.0106   1.0000
   8.000   0.9385   0.02108   0.01482  -0.0163   0.0095   1.0000
   8.500   0.9752   0.02505   0.01927  -0.0136   0.0093   1.0000
   9.000   1.0007   0.03190   0.02695  -0.0096   0.0099   1.0000
   9.500   1.0009   0.04092   0.03692  -0.0043   0.0108   1.0000
  10.000   0.9777   0.04912   0.04575   0.0015   0.0114   1.0000
  10.500   0.9299   0.05755   0.05457   0.0050   0.0121   1.0000
  11.000   0.9013   0.06618   0.06352   0.0017   0.0116   1.0000
