  
       XFOIL         Version 6.99
  
 Calculated polar for: HQ 1.0/12 AIRFOIL                               
  
 1 1 Reynolds number fixed          Mach number fixed         
  
 xtrf =   1.000 (top)        1.000 (bottom)  
 Mach =   0.000     Re =     0.400 e 6     Ncrit =   9.000
  
   alpha    CL        CD       CDp       CM     Top_Xtr  Bot_Xtr
  ------ -------- --------- --------- -------- -------- --------
   0.000   0.1370   0.00786   0.00265  -0.0296   0.7487   0.7457
   0.500   0.1917   0.00787   0.00266  -0.0290   0.7313   0.7644
   1.000   0.2465   0.00787   0.00266  -0.0286   0.7136   0.7805
   1.500   0.3015   0.00787   0.00267  -0.0282   0.6959   0.7953
   2.000   0.3561   0.00788   0.00271  -0.0277   0.6772   0.8109
   2.500   0.4099   0.00787   0.00277  -0.0270   0.6542   0.8274
   3.000   0.4628   0.00788   0.00283  -0.0262   0.6254   0.8452
   3.500   0.5144   0.00792   0.00290  -0.0250   0.5888   0.8658
   4.000   0.5631   0.00807   0.00300  -0.0234   0.5304   0.8906
   4.500   0.6099   0.00852   0.00326  -0.0214   0.4452   0.9257
   5.000   0.6741   0.00941   0.00378  -0.0239   0.3409   0.9706
   5.500   0.7405   0.01040   0.00442  -0.0273   0.2702   1.0000
   6.000   0.7857   0.01106   0.00497  -0.0258   0.2356   1.0000
   6.500   0.8319   0.01178   0.00557  -0.0245   0.1962   1.0000
   7.000   0.8769   0.01266   0.00625  -0.0230   0.1459   1.0000
   7.500   0.9186   0.01382   0.00721  -0.0212   0.1043   1.0000
   8.000   0.9606   0.01494   0.00826  -0.0193   0.0816   1.0000
   8.500   1.0016   0.01606   0.00934  -0.0173   0.0652   1.0000
   9.000   1.0416   0.01720   0.01051  -0.0153   0.0526   1.0000
   9.500   1.0804   0.01833   0.01167  -0.0131   0.0417   1.0000
  10.000   1.1153   0.01963   0.01303  -0.0104   0.0329   1.0000
  11.500   1.1690   0.02586   0.01961   0.0031   0.0150   1.0000
  12.000   1.1813   0.02859   0.02245   0.0064   0.0129   1.0000
  12.500   1.1821   0.03260   0.02669   0.0098   0.0117   1.0000
  13.000   1.1866   0.03671   0.03106   0.0118   0.0110   1.0000
  13.500   1.1897   0.04126   0.03586   0.0129   0.0103   1.0000
  14.000   1.1874   0.04681   0.04164   0.0131   0.0099   1.0000
  14.500   1.1789   0.05357   0.04863   0.0122   0.0096   1.0000
  15.000   1.1650   0.06166   0.05698   0.0100   0.0093   1.0000
  15.500   1.1455   0.07148   0.06708   0.0063   0.0091   1.0000
  16.000   1.1157   0.08403   0.07998   0.0004   0.0089   1.0000
  16.500   1.0987   0.09564   0.09187  -0.0060   0.0091   1.0000
  17.000   1.0723   0.10987   0.10640  -0.0143   0.0091   1.0000
  17.500   1.0388   0.12656   0.12339  -0.0242   0.0091   1.0000
  18.000   0.9986   0.14652   0.14370  -0.0364   0.0093   1.0000
   0.000   0.1370   0.00786   0.00265  -0.0296   0.7487   0.7457
   0.500   0.1917   0.00787   0.00266  -0.0290   0.7313   0.7644
   1.000   0.2465   0.00787   0.00266  -0.0286   0.7136   0.7805
   1.500   0.3015   0.00787   0.00267  -0.0282   0.6959   0.7953
   2.000   0.3561   0.00788   0.00271  -0.0277   0.6772   0.8109
   2.500   0.4099   0.00787   0.00277  -0.0270   0.6542   0.8274
   3.000   0.4628   0.00788   0.00283  -0.0262   0.6254   0.8452
   3.500   0.5144   0.00792   0.00290  -0.0250   0.5888   0.8658
   4.000   0.5631   0.00807   0.00300  -0.0234   0.5304   0.8906
   4.500   0.6099   0.00852   0.00326  -0.0214   0.4452   0.9257
   5.000   0.6741   0.00941   0.00378  -0.0239   0.3409   0.9706
   5.500   0.7405   0.01040   0.00442  -0.0273   0.2702   1.0000
   6.000   0.7857   0.01106   0.00497  -0.0258   0.2356   1.0000
   6.500   0.8319   0.01178   0.00557  -0.0245   0.1962   1.0000
   7.000   0.8769   0.01266   0.00625  -0.0230   0.1459   1.0000
   7.500   0.9186   0.01382   0.00721  -0.0212   0.1043   1.0000
   8.000   0.9606   0.01494   0.00826  -0.0193   0.0816   1.0000
   8.500   1.0016   0.01606   0.00934  -0.0173   0.0652   1.0000
   9.000   1.0416   0.01720   0.01051  -0.0153   0.0526   1.0000
   9.500   1.0804   0.01833   0.01167  -0.0131   0.0417   1.0000
  10.000   1.1153   0.01963   0.01303  -0.0104   0.0329   1.0000
  11.500   1.1690   0.02586   0.01961   0.0031   0.0150   1.0000
  12.000   1.1813   0.02859   0.02245   0.0064   0.0129   1.0000
  12.500   1.1821   0.03260   0.02669   0.0098   0.0117   1.0000
  13.000   1.1866   0.03671   0.03106   0.0118   0.0110   1.0000
  13.500   1.1897   0.04126   0.03586   0.0129   0.0103   1.0000
  14.000   1.1874   0.04681   0.04164   0.0131   0.0099   1.0000
  14.500   1.1789   0.05357   0.04863   0.0122   0.0096   1.0000
  15.000   1.1650   0.06166   0.05698   0.0100   0.0093   1.0000
  15.500   1.1455   0.07148   0.06708   0.0063   0.0091   1.0000
  16.000   1.1157   0.08403   0.07998   0.0004   0.0089   1.0000
  16.500   1.0987   0.09564   0.09187  -0.0060   0.0091   1.0000
  17.000   1.0723   0.10987   0.10640  -0.0143   0.0091   1.0000
  17.500   1.0388   0.12656   0.12339  -0.0242   0.0091   1.0000
  18.000   0.9986   0.14652   0.14370  -0.0364   0.0093   1.0000
   0.000   0.1370   0.00786   0.00265  -0.0296   0.7487   0.7457
   0.500   0.1917   0.00787   0.00266  -0.0290   0.7313   0.7644
   1.000   0.2465   0.00787   0.00266  -0.0286   0.7136   0.7805
   1.500   0.3015   0.00787   0.00267  -0.0282   0.6959   0.7953
   2.000   0.3561   0.00788   0.00271  -0.0277   0.6772   0.8109
   2.500   0.4099   0.00787   0.00277  -0.0270   0.6542   0.8274
   3.000   0.4628   0.00788   0.00283  -0.0262   0.6254   0.8452
   3.500   0.5144   0.00792   0.00290  -0.0250   0.5888   0.8658
   4.000   0.5631   0.00807   0.00300  -0.0234   0.5304   0.8906
   4.500   0.6099   0.00852   0.00326  -0.0214   0.4452   0.9257
   5.000   0.6741   0.00941   0.00378  -0.0239   0.3409   0.9706
   5.500   0.7405   0.01040   0.00442  -0.0273   0.2702   1.0000
   6.000   0.7857   0.01106   0.00497  -0.0258   0.2356   1.0000
   6.500   0.8319   0.01178   0.00557  -0.0245   0.1962   1.0000
   7.000   0.8769   0.01266   0.00625  -0.0230   0.1459   1.0000
   7.500   0.9186   0.01382   0.00721  -0.0212   0.1043   1.0000
   8.000   0.9606   0.01494   0.00826  -0.0193   0.0816   1.0000
   8.500   1.0016   0.01606   0.00934  -0.0173   0.0652   1.0000
   9.000   1.0416   0.01720   0.01051  -0.0153   0.0526   1.0000
   9.500   1.0804   0.01833   0.01167  -0.0131   0.0417   1.0000
  10.000   1.1153   0.01963   0.01303  -0.0104   0.0329   1.0000
  11.500   1.1690   0.02586   0.01961   0.0031   0.0150   1.0000
  12.000   1.1813   0.02859   0.02245   0.0064   0.0129   1.0000
  12.500   1.1821   0.03260   0.02669   0.0098   0.0117   1.0000
  13.000   1.1866   0.03671   0.03106   0.0118   0.0110   1.0000
  13.500   1.1897   0.04126   0.03586   0.0129   0.0103   1.0000
  14.000   1.1874   0.04681   0.04164   0.0131   0.0099   1.0000
  14.500   1.1789   0.05357   0.04863   0.0122   0.0096   1.0000
  15.000   1.1650   0.06166   0.05698   0.0100   0.0093   1.0000
  15.500   1.1455   0.07148   0.06708   0.0063   0.0091   1.0000
  16.000   1.1157   0.08403   0.07998   0.0004   0.0089   1.0000
  16.500   1.0987   0.09564   0.09187  -0.0060   0.0091   1.0000
  17.000   1.0723   0.10987   0.10640  -0.0143   0.0091   1.0000
  17.500   1.0388   0.12656   0.12339  -0.0242   0.0091   1.0000
  18.000   0.9986   0.14652   0.14370  -0.0364   0.0093   1.0000
