  
       XFOIL         Version 6.99
  
 Calculated polar for: HQ 1.5/12 AIRFOIL                               
  
 1 1 Reynolds number fixed          Mach number fixed         
  
 xtrf =   1.000 (top)        1.000 (bottom)  
 Mach =   0.000     Re =     0.400 e 6     Ncrit =   9.000
  
   alpha    CL        CD       CDp       CM     Top_Xtr  Bot_Xtr
  ------ -------- --------- --------- -------- -------- --------
   0.000   0.2060   0.00790   0.00269  -0.0442   0.7498   0.7437
   0.500   0.2606   0.00790   0.00269  -0.0436   0.7323   0.7617
   1.000   0.3154   0.00789   0.00269  -0.0432   0.7144   0.7774
   1.500   0.3702   0.00790   0.00270  -0.0428   0.6965   0.7924
   2.000   0.4247   0.00792   0.00274  -0.0423   0.6783   0.8084
   2.500   0.4784   0.00793   0.00280  -0.0417   0.6561   0.8258
   3.000   0.5311   0.00795   0.00288  -0.0408   0.6314   0.8444
   3.500   0.5826   0.00798   0.00297  -0.0397   0.5987   0.8669
   4.000   0.6312   0.00808   0.00307  -0.0379   0.5501   0.8963
   4.500   0.6820   0.00854   0.00331  -0.0369   0.4584   0.9450
   5.000   0.7491   0.00963   0.00386  -0.0404   0.3391   1.0000
   5.500   0.7940   0.01047   0.00443  -0.0390   0.2848   1.0000
   6.000   0.8408   0.01122   0.00503  -0.0378   0.2513   1.0000
   6.500   0.8885   0.01188   0.00563  -0.0367   0.2176   1.0000
   7.000   0.9345   0.01266   0.00627  -0.0354   0.1726   1.0000
   7.500   0.9723   0.01410   0.00729  -0.0330   0.1013   1.0000
   8.000   1.0094   0.01556   0.00856  -0.0304   0.0706   1.0000
   8.500   1.0482   0.01676   0.00976  -0.0281   0.0577   1.0000
   9.000   1.0848   0.01800   0.01105  -0.0255   0.0499   1.0000
   9.500   1.1184   0.01929   0.01247  -0.0224   0.0454   1.0000
  10.000   1.1486   0.02046   0.01373  -0.0189   0.0410   1.0000
  10.500   1.1695   0.02223   0.01560  -0.0145   0.0370   1.0000
  11.000   1.2035   0.02320   0.01672  -0.0121   0.0332   1.0000
  11.500   1.2246   0.02510   0.01869  -0.0087   0.0294   1.0000
  12.000   1.2544   0.02652   0.02029  -0.0065   0.0260   1.0000
  12.500   1.2835   0.02807   0.02193  -0.0047   0.0196   1.0000
  13.000   1.2978   0.03095   0.02486  -0.0021   0.0133   1.0000
  13.500   1.3005   0.03503   0.02912   0.0005   0.0112   1.0000
  14.000   1.3035   0.03946   0.03378   0.0020   0.0099   1.0000
  14.500   1.2995   0.04500   0.03953   0.0026   0.0091   1.0000
  15.000   1.2849   0.05232   0.04710   0.0019   0.0085   1.0000
  15.500   1.2714   0.06036   0.05546  -0.0001   0.0083   1.0000
  16.000   1.2603   0.06896   0.06434  -0.0033   0.0080   1.0000
  16.500   1.2352   0.08068   0.07636  -0.0087   0.0077   1.0000
  17.000   1.2093   0.09345   0.08942  -0.0151   0.0079   1.0000
  17.500   1.1802   0.10763   0.10389  -0.0227   0.0077   1.0000
  18.000   1.1506   0.12250   0.11902  -0.0309   0.0077   1.0000
  18.500   1.1225   0.13757   0.13434  -0.0396   0.0077   1.0000
  19.000   1.0969   0.15274   0.14974  -0.0486   0.0077   1.0000
  19.500   1.0694   0.16926   0.16650  -0.0586   0.0079   1.0000
   0.000   0.2060   0.00790   0.00269  -0.0442   0.7498   0.7437
   0.500   0.2606   0.00790   0.00269  -0.0436   0.7323   0.7617
   1.000   0.3154   0.00789   0.00269  -0.0432   0.7144   0.7774
   1.500   0.3702   0.00790   0.00270  -0.0428   0.6965   0.7924
   2.000   0.4247   0.00792   0.00274  -0.0423   0.6783   0.8084
   2.500   0.4784   0.00793   0.00280  -0.0417   0.6561   0.8258
   3.000   0.5311   0.00795   0.00288  -0.0408   0.6314   0.8444
   3.500   0.5826   0.00798   0.00297  -0.0397   0.5987   0.8669
   4.000   0.6312   0.00808   0.00307  -0.0379   0.5501   0.8963
   4.500   0.6820   0.00854   0.00331  -0.0369   0.4584   0.9450
   5.000   0.7491   0.00963   0.00386  -0.0404   0.3391   1.0000
   5.500   0.7940   0.01047   0.00443  -0.0390   0.2848   1.0000
   6.000   0.8408   0.01122   0.00503  -0.0378   0.2513   1.0000
   6.500   0.8885   0.01188   0.00563  -0.0367   0.2176   1.0000
   7.000   0.9345   0.01266   0.00627  -0.0354   0.1726   1.0000
   7.500   0.9723   0.01410   0.00729  -0.0330   0.1013   1.0000
   8.000   1.0094   0.01556   0.00856  -0.0304   0.0706   1.0000
   8.500   1.0482   0.01676   0.00976  -0.0281   0.0577   1.0000
   9.000   1.0848   0.01800   0.01105  -0.0255   0.0499   1.0000
   9.500   1.1184   0.01929   0.01247  -0.0224   0.0454   1.0000
  10.000   1.1486   0.02046   0.01373  -0.0189   0.0410   1.0000
  10.500   1.1695   0.02223   0.01560  -0.0145   0.0370   1.0000
  11.000   1.2035   0.02320   0.01672  -0.0121   0.0332   1.0000
  11.500   1.2246   0.02510   0.01869  -0.0087   0.0294   1.0000
  12.000   1.2544   0.02652   0.02029  -0.0065   0.0260   1.0000
  12.500   1.2835   0.02807   0.02193  -0.0047   0.0196   1.0000
  13.000   1.2978   0.03095   0.02486  -0.0021   0.0133   1.0000
  13.500   1.3005   0.03503   0.02912   0.0005   0.0112   1.0000
  14.000   1.3035   0.03946   0.03378   0.0020   0.0099   1.0000
  14.500   1.2995   0.04500   0.03953   0.0026   0.0091   1.0000
  15.000   1.2849   0.05232   0.04710   0.0019   0.0085   1.0000
  15.500   1.2714   0.06036   0.05546  -0.0001   0.0083   1.0000
  16.000   1.2603   0.06896   0.06434  -0.0033   0.0080   1.0000
  16.500   1.2352   0.08068   0.07636  -0.0087   0.0077   1.0000
  17.000   1.2093   0.09345   0.08942  -0.0151   0.0079   1.0000
  17.500   1.1802   0.10763   0.10389  -0.0227   0.0077   1.0000
  18.000   1.1506   0.12250   0.11902  -0.0309   0.0077   1.0000
  18.500   1.1225   0.13757   0.13434  -0.0396   0.0077   1.0000
  19.000   1.0969   0.15274   0.14974  -0.0486   0.0077   1.0000
  19.500   1.0694   0.16926   0.16650  -0.0586   0.0079   1.0000
   0.000   0.2060   0.00790   0.00269  -0.0442   0.7498   0.7437
   0.500   0.2606   0.00790   0.00269  -0.0436   0.7323   0.7617
   1.000   0.3154   0.00789   0.00269  -0.0432   0.7144   0.7774
   1.500   0.3702   0.00790   0.00270  -0.0428   0.6965   0.7924
   2.000   0.4247   0.00792   0.00274  -0.0423   0.6783   0.8084
   2.500   0.4784   0.00793   0.00280  -0.0417   0.6561   0.8258
   3.000   0.5311   0.00795   0.00288  -0.0408   0.6314   0.8444
   3.500   0.5826   0.00798   0.00297  -0.0397   0.5987   0.8669
   4.000   0.6312   0.00808   0.00307  -0.0379   0.5501   0.8963
   4.500   0.6820   0.00854   0.00331  -0.0369   0.4584   0.9450
   5.000   0.7491   0.00963   0.00386  -0.0404   0.3391   1.0000
   5.500   0.7940   0.01047   0.00443  -0.0390   0.2848   1.0000
   6.000   0.8408   0.01122   0.00503  -0.0378   0.2513   1.0000
   6.500   0.8885   0.01188   0.00563  -0.0367   0.2176   1.0000
   7.000   0.9345   0.01266   0.00627  -0.0354   0.1726   1.0000
   7.500   0.9723   0.01410   0.00729  -0.0330   0.1013   1.0000
   8.000   1.0094   0.01556   0.00856  -0.0304   0.0706   1.0000
   8.500   1.0482   0.01676   0.00976  -0.0281   0.0577   1.0000
   9.000   1.0848   0.01800   0.01105  -0.0255   0.0499   1.0000
   9.500   1.1184   0.01929   0.01247  -0.0224   0.0454   1.0000
  10.000   1.1486   0.02046   0.01373  -0.0189   0.0410   1.0000
  10.500   1.1695   0.02223   0.01560  -0.0145   0.0370   1.0000
  11.000   1.2035   0.02320   0.01672  -0.0121   0.0332   1.0000
  11.500   1.2246   0.02510   0.01869  -0.0087   0.0294   1.0000
  12.000   1.2544   0.02652   0.02029  -0.0065   0.0260   1.0000
  12.500   1.2835   0.02807   0.02193  -0.0047   0.0196   1.0000
  13.000   1.2978   0.03095   0.02486  -0.0021   0.0133   1.0000
  13.500   1.3005   0.03503   0.02912   0.0005   0.0112   1.0000
  14.000   1.3035   0.03946   0.03378   0.0020   0.0099   1.0000
  14.500   1.2995   0.04500   0.03953   0.0026   0.0091   1.0000
  15.000   1.2849   0.05232   0.04710   0.0019   0.0085   1.0000
  15.500   1.2714   0.06036   0.05546  -0.0001   0.0083   1.0000
  16.000   1.2603   0.06896   0.06434  -0.0033   0.0080   1.0000
  16.500   1.2352   0.08068   0.07636  -0.0087   0.0077   1.0000
  17.000   1.2093   0.09345   0.08942  -0.0151   0.0079   1.0000
  17.500   1.1802   0.10763   0.10389  -0.0227   0.0077   1.0000
  18.000   1.1506   0.12250   0.11902  -0.0309   0.0077   1.0000
  18.500   1.1225   0.13757   0.13434  -0.0396   0.0077   1.0000
  19.000   1.0969   0.15274   0.14974  -0.0486   0.0077   1.0000
  19.500   1.0694   0.16926   0.16650  -0.0586   0.0079   1.0000
