  
       XFOIL         Version 6.99
  
 Calculated polar for: HQ 1.5/8.5 AIRFOIL                              
  
 1 1 Reynolds number fixed          Mach number fixed         
  
 xtrf =   1.000 (top)        1.000 (bottom)  
 Mach =   0.000     Re =     0.400 e 6     Ncrit =   9.000
  
   alpha    CL        CD       CDp       CM     Top_Xtr  Bot_Xtr
  ------ -------- --------- --------- -------- -------- --------
   0.000   0.2025   0.00666   0.00209  -0.0459   0.8237   0.8215
   0.500   0.2541   0.00658   0.00207  -0.0445   0.8053   0.8524
   1.000   0.3048   0.00649   0.00209  -0.0429   0.7879   0.8880
   1.500   0.3579   0.00640   0.00207  -0.0417   0.7689   0.9354
   2.000   0.4335   0.00629   0.00198  -0.0457   0.7327   0.9973
   2.500   0.4863   0.00640   0.00191  -0.0451   0.6774   1.0000
   3.000   0.5382   0.00673   0.00201  -0.0442   0.6101   1.0000
   3.500   0.5864   0.00749   0.00225  -0.0429   0.4819   1.0000
   4.000   0.6339   0.00856   0.00276  -0.0418   0.3495   1.0000
   4.500   0.6823   0.00962   0.00335  -0.0409   0.2415   1.0000
   5.000   0.7282   0.01111   0.00419  -0.0399   0.1031   1.0000
   5.500   0.7761   0.01239   0.00520  -0.0388   0.0552   1.0000
   6.000   0.8257   0.01336   0.00624  -0.0379   0.0470   1.0000
   6.500   0.8739   0.01446   0.00740  -0.0370   0.0385   1.0000
   7.000   0.9235   0.01530   0.00842  -0.0362   0.0288   1.0000
   7.500   0.9669   0.01711   0.01029  -0.0344   0.0165   1.0000
   8.000   1.0137   0.01827   0.01154  -0.0332   0.0127   1.0000
   9.000   1.0839   0.02489   0.01888  -0.0276   0.0103   1.0000
   9.500   1.1128   0.03002   0.02460  -0.0243   0.0101   1.0000
  10.000   1.1251   0.03704   0.03240  -0.0199   0.0102   1.0000
  10.500   1.1155   0.04430   0.04037  -0.0143   0.0100   1.0000
  11.000   1.0867   0.05063   0.04716  -0.0087   0.0098   1.0000
  11.500   1.0447   0.05995   0.05692  -0.0084   0.0100   1.0000
  12.000   1.0018   0.07247   0.06978  -0.0148   0.0104   1.0000
  12.500   0.9567   0.09124   0.08884  -0.0289   0.0106   1.0000
   0.000   0.2025   0.00666   0.00209  -0.0459   0.8237   0.8215
   0.500   0.2541   0.00658   0.00207  -0.0445   0.8053   0.8524
   1.000   0.3048   0.00649   0.00209  -0.0429   0.7879   0.8880
   1.500   0.3579   0.00640   0.00207  -0.0417   0.7689   0.9354
   2.000   0.4335   0.00629   0.00198  -0.0457   0.7327   0.9973
   2.500   0.4863   0.00640   0.00191  -0.0451   0.6774   1.0000
   3.000   0.5382   0.00673   0.00201  -0.0442   0.6101   1.0000
   3.500   0.5864   0.00749   0.00225  -0.0429   0.4819   1.0000
   4.000   0.6339   0.00856   0.00276  -0.0418   0.3495   1.0000
   4.500   0.6823   0.00962   0.00335  -0.0409   0.2415   1.0000
   5.000   0.7282   0.01111   0.00419  -0.0399   0.1031   1.0000
   5.500   0.7761   0.01239   0.00520  -0.0388   0.0552   1.0000
   6.000   0.8257   0.01336   0.00624  -0.0379   0.0470   1.0000
   6.500   0.8739   0.01446   0.00740  -0.0370   0.0385   1.0000
   7.000   0.9235   0.01530   0.00842  -0.0362   0.0288   1.0000
   7.500   0.9669   0.01711   0.01029  -0.0344   0.0165   1.0000
   8.000   1.0137   0.01827   0.01154  -0.0332   0.0127   1.0000
   9.000   1.0839   0.02489   0.01888  -0.0276   0.0103   1.0000
   9.500   1.1128   0.03002   0.02460  -0.0243   0.0101   1.0000
  10.000   1.1251   0.03704   0.03240  -0.0199   0.0102   1.0000
  10.500   1.1155   0.04430   0.04037  -0.0143   0.0100   1.0000
  11.000   1.0867   0.05063   0.04716  -0.0087   0.0098   1.0000
  11.500   1.0447   0.05995   0.05692  -0.0084   0.0100   1.0000
  12.000   1.0018   0.07247   0.06978  -0.0148   0.0104   1.0000
  12.500   0.9567   0.09124   0.08884  -0.0289   0.0106   1.0000
