  
       XFOIL         Version 6.99
  
 Calculated polar for: HQ 1.5/8 AIRFOIL                                
  
 1 1 Reynolds number fixed          Mach number fixed         
  
 xtrf =   1.000 (top)        1.000 (bottom)  
 Mach =   0.000     Re =     0.400 e 6     Ncrit =   9.000
  
   alpha    CL        CD       CDp       CM     Top_Xtr  Bot_Xtr
  ------ -------- --------- --------- -------- -------- --------
   0.000   0.1934   0.00611   0.00181  -0.0423   0.8382   0.8680
   0.500   0.2463   0.00596   0.00172  -0.0412   0.8175   0.9101
   1.500   0.3872   0.00597   0.00164  -0.0475   0.7692   1.0000
   2.000   0.4391   0.00612   0.00170  -0.0467   0.7394   1.0000
   2.500   0.4910   0.00631   0.00181  -0.0457   0.7005   1.0000
   3.000   0.5417   0.00660   0.00194  -0.0446   0.6375   1.0000
   3.500   0.5892   0.00724   0.00218  -0.0429   0.5200   1.0000
   4.000   0.6345   0.00835   0.00267  -0.0413   0.3736   1.0000
   4.500   0.6823   0.00934   0.00331  -0.0402   0.2771   1.0000
   5.000   0.7293   0.01050   0.00398  -0.0392   0.1597   1.0000
   5.500   0.7751   0.01189   0.00493  -0.0380   0.0679   1.0000
   6.000   0.8222   0.01318   0.00605  -0.0368   0.0264   1.0000
   6.500   0.8670   0.01496   0.00792  -0.0348   0.0100   1.0000
   7.000   0.9030   0.01834   0.01171  -0.0314   0.0076   1.0000
   7.500   0.9424   0.02183   0.01560  -0.0287   0.0073   1.0000
   8.000   0.9764   0.02762   0.02205  -0.0254   0.0074   1.0000
   8.500   1.0026   0.03409   0.02918  -0.0218   0.0081   1.0000
   9.000   0.9911   0.04760   0.04403  -0.0144   0.0128   1.0000
