  
       XFOIL         Version 6.99
  
 Calculated polar for: HQ 1.5/9 AIRFOIL                                
  
 1 1 Reynolds number fixed          Mach number fixed         
  
 xtrf =   1.000 (top)        1.000 (bottom)  
 Mach =   0.000     Re =     0.400 e 6     Ncrit =   9.000
  
   alpha    CL        CD       CDp       CM     Top_Xtr  Bot_Xtr
  ------ -------- --------- --------- -------- -------- --------
   0.000   0.2032   0.00666   0.00211  -0.0446   0.8218   0.8256
   0.500   0.2554   0.00658   0.00205  -0.0434   0.7990   0.8517
   1.000   0.3072   0.00650   0.00199  -0.0422   0.7780   0.8808
   1.500   0.3603   0.00640   0.00199  -0.0411   0.7550   0.9222
   2.000   0.4348   0.00639   0.00199  -0.0449   0.7283   0.9771
   2.500   0.4979   0.00652   0.00204  -0.0467   0.6961   1.0000
   3.000   0.5490   0.00673   0.00214  -0.0457   0.6507   1.0000
   3.500   0.5986   0.00711   0.00230  -0.0444   0.5764   1.0000
   4.000   0.6451   0.00790   0.00261  -0.0428   0.4575   1.0000
   4.500   0.6914   0.00891   0.00314  -0.0414   0.3398   1.0000
   5.000   0.7381   0.00998   0.00382  -0.0403   0.2478   1.0000
   5.500   0.7853   0.01103   0.00449  -0.0393   0.1585   1.0000
   6.000   0.8304   0.01239   0.00547  -0.0380   0.0786   1.0000
   6.500   0.8776   0.01349   0.00649  -0.0368   0.0494   1.0000
   7.000   0.9247   0.01455   0.00752  -0.0357   0.0308   1.0000
   7.500   0.9665   0.01644   0.00947  -0.0335   0.0122   1.0000
   8.000   1.0070   0.01837   0.01166  -0.0312   0.0098   1.0000
   8.500   1.0393   0.02136   0.01492  -0.0280   0.0081   1.0000
   9.000   1.0736   0.02424   0.01813  -0.0251   0.0073   1.0000
   9.500   1.1032   0.02797   0.02231  -0.0218   0.0069   1.0000
  10.000   1.1224   0.03287   0.02780  -0.0177   0.0066   1.0000
  10.500   1.1205   0.03879   0.03435  -0.0118   0.0065   1.0000
  11.000   1.0951   0.04528   0.04140  -0.0054   0.0066   1.0000
  11.500   1.0573   0.05388   0.05050  -0.0034   0.0067   1.0000
  12.000   1.0220   0.06418   0.06118  -0.0067   0.0069   1.0000
  12.500   0.9829   0.07866   0.07599  -0.0160   0.0070   1.0000
  13.000   0.9393   0.09987   0.09748  -0.0309   0.0071   1.0000
  13.500   0.8797   0.12789   0.12558  -0.0463   0.0079   1.0000
