  
       XFOIL         Version 6.99
  
 Calculated polar for: HQ 1.5/10 AIRFOIL                               
  
 1 1 Reynolds number fixed          Mach number fixed         
  
 xtrf =   1.000 (top)        1.000 (bottom)  
 Mach =   0.000     Re =     0.400 e 6     Ncrit =   9.000
  
   alpha    CL        CD       CDp       CM     Top_Xtr  Bot_Xtr
  ------ -------- --------- --------- -------- -------- --------
   0.000   0.2055   0.00710   0.00232  -0.0448   0.7941   0.7935
   0.500   0.2592   0.00709   0.00227  -0.0440   0.7749   0.8152
   1.000   0.3126   0.00703   0.00225  -0.0432   0.7539   0.8354
   2.500   0.4707   0.00688   0.00232  -0.0401   0.6838   0.9286
   3.000   0.5451   0.00695   0.00239  -0.0440   0.6471   0.9806
   3.500   0.6045   0.00721   0.00248  -0.0451   0.5882   1.0000
   4.000   0.6504   0.00787   0.00271  -0.0433   0.4823   1.0000
   4.500   0.6961   0.00879   0.00317  -0.0418   0.3749   1.0000
   5.000   0.7424   0.00979   0.00376  -0.0405   0.2867   1.0000
   5.500   0.7907   0.01061   0.00441  -0.0396   0.2334   1.0000
   6.000   0.8380   0.01154   0.00507  -0.0385   0.1627   1.0000
   6.500   0.8799   0.01311   0.00615  -0.0368   0.0787   1.0000
   7.000   0.9246   0.01434   0.00731  -0.0353   0.0556   1.0000
   7.500   0.9700   0.01542   0.00840  -0.0340   0.0422   1.0000
   8.000   1.0171   0.01625   0.00930  -0.0329   0.0336   1.0000
   8.500   1.0621   0.01726   0.01038  -0.0315   0.0204   1.0000
   9.000   1.0992   0.01912   0.01232  -0.0289   0.0114   1.0000
   9.500   1.1262   0.02181   0.01524  -0.0250   0.0094   1.0000
  10.000   1.1557   0.02397   0.01766  -0.0216   0.0085   1.0000
  10.500   1.1805   0.02602   0.01996  -0.0178   0.0075   1.0000
  11.000   1.1945   0.02862   0.02279  -0.0129   0.0070   1.0000
  11.500   1.2018   0.03200   0.02646  -0.0083   0.0068   1.0000
  12.000   1.2013   0.03646   0.03126  -0.0045   0.0066   1.0000
  12.500   1.1906   0.04242   0.03762  -0.0018   0.0064   1.0000
  13.000   1.1659   0.05072   0.04639  -0.0011   0.0062   1.0000
  13.500   1.1423   0.05991   0.05599  -0.0032   0.0062   1.0000
  14.000   1.1127   0.07151   0.06797  -0.0085   0.0062   1.0000
  14.500   1.0855   0.08474   0.08153  -0.0163   0.0063   1.0000
  15.000   1.0462   0.10282   0.09994  -0.0277   0.0063   1.0000
  15.500   1.0166   0.12058   0.11797  -0.0386   0.0065   1.0000
  17.500   0.7006   0.20450   0.20248  -0.0793   0.0171   1.0000
  18.000   0.7095   0.21155   0.20955  -0.0827   0.0162   1.0000
  18.500   0.7205   0.21804   0.21606  -0.0856   0.0155   1.0000
  19.000   0.7290   0.22764   0.22565  -0.0885   0.0146   1.0000
  19.500   0.7372   0.23538   0.23341  -0.0923   0.0146   1.0000
  20.000   0.7444   0.24334   0.24138  -0.0963   0.0144   1.0000
   0.000   0.2055   0.00710   0.00232  -0.0448   0.7941   0.7935
   0.500   0.2592   0.00709   0.00227  -0.0440   0.7749   0.8152
   1.000   0.3126   0.00703   0.00225  -0.0432   0.7539   0.8354
   2.500   0.4707   0.00688   0.00232  -0.0401   0.6838   0.9286
   3.000   0.5451   0.00695   0.00239  -0.0440   0.6471   0.9806
   3.500   0.6045   0.00721   0.00248  -0.0451   0.5882   1.0000
   4.000   0.6504   0.00787   0.00271  -0.0433   0.4823   1.0000
   4.500   0.6961   0.00879   0.00317  -0.0418   0.3749   1.0000
   5.000   0.7424   0.00979   0.00376  -0.0405   0.2867   1.0000
   5.500   0.7907   0.01061   0.00441  -0.0396   0.2334   1.0000
   6.000   0.8380   0.01154   0.00507  -0.0385   0.1627   1.0000
   6.500   0.8799   0.01311   0.00615  -0.0368   0.0787   1.0000
   7.000   0.9246   0.01434   0.00731  -0.0353   0.0556   1.0000
   7.500   0.9700   0.01542   0.00840  -0.0340   0.0422   1.0000
   8.000   1.0171   0.01625   0.00930  -0.0329   0.0336   1.0000
   8.500   1.0621   0.01726   0.01038  -0.0315   0.0204   1.0000
   9.000   1.0992   0.01912   0.01232  -0.0289   0.0114   1.0000
   9.500   1.1262   0.02181   0.01524  -0.0250   0.0094   1.0000
  10.000   1.1557   0.02397   0.01766  -0.0216   0.0085   1.0000
  10.500   1.1805   0.02602   0.01996  -0.0178   0.0075   1.0000
  11.000   1.1945   0.02862   0.02279  -0.0129   0.0070   1.0000
  11.500   1.2018   0.03200   0.02646  -0.0083   0.0068   1.0000
  12.000   1.2013   0.03646   0.03126  -0.0045   0.0066   1.0000
  12.500   1.1906   0.04242   0.03762  -0.0018   0.0064   1.0000
  13.000   1.1659   0.05072   0.04639  -0.0011   0.0062   1.0000
  13.500   1.1423   0.05991   0.05599  -0.0032   0.0062   1.0000
  14.000   1.1127   0.07151   0.06797  -0.0085   0.0062   1.0000
  14.500   1.0855   0.08474   0.08153  -0.0163   0.0063   1.0000
  15.000   1.0462   0.10282   0.09994  -0.0277   0.0063   1.0000
  15.500   1.0166   0.12058   0.11797  -0.0386   0.0065   1.0000
  17.500   0.7006   0.20450   0.20248  -0.0793   0.0171   1.0000
  18.000   0.7095   0.21155   0.20955  -0.0827   0.0162   1.0000
  18.500   0.7205   0.21804   0.21606  -0.0856   0.0155   1.0000
  19.000   0.7290   0.22764   0.22565  -0.0885   0.0146   1.0000
  19.500   0.7372   0.23538   0.23341  -0.0923   0.0146   1.0000
  20.000   0.7444   0.24334   0.24138  -0.0963   0.0144   1.0000
   0.000   0.2055   0.00710   0.00232  -0.0448   0.7941   0.7935
   0.500   0.2592   0.00709   0.00227  -0.0440   0.7749   0.8152
   1.000   0.3126   0.00703   0.00225  -0.0432   0.7539   0.8354
   2.500   0.4707   0.00688   0.00232  -0.0401   0.6838   0.9286
   3.000   0.5451   0.00695   0.00239  -0.0440   0.6471   0.9806
   3.500   0.6045   0.00721   0.00248  -0.0451   0.5882   1.0000
   4.000   0.6504   0.00787   0.00271  -0.0433   0.4823   1.0000
   4.500   0.6961   0.00879   0.00317  -0.0418   0.3749   1.0000
   5.000   0.7424   0.00979   0.00376  -0.0405   0.2867   1.0000
   5.500   0.7907   0.01061   0.00441  -0.0396   0.2334   1.0000
   6.000   0.8380   0.01154   0.00507  -0.0385   0.1627   1.0000
   6.500   0.8799   0.01311   0.00615  -0.0368   0.0787   1.0000
   7.000   0.9246   0.01434   0.00731  -0.0353   0.0556   1.0000
   7.500   0.9700   0.01542   0.00840  -0.0340   0.0422   1.0000
   8.000   1.0171   0.01625   0.00930  -0.0329   0.0336   1.0000
   8.500   1.0621   0.01726   0.01038  -0.0315   0.0204   1.0000
   9.000   1.0992   0.01912   0.01232  -0.0289   0.0114   1.0000
   9.500   1.1262   0.02181   0.01524  -0.0250   0.0094   1.0000
  10.000   1.1557   0.02397   0.01766  -0.0216   0.0085   1.0000
  10.500   1.1805   0.02602   0.01996  -0.0178   0.0075   1.0000
  11.000   1.1945   0.02862   0.02279  -0.0129   0.0070   1.0000
  11.500   1.2018   0.03200   0.02646  -0.0083   0.0068   1.0000
  12.000   1.2013   0.03646   0.03126  -0.0045   0.0066   1.0000
  12.500   1.1906   0.04242   0.03762  -0.0018   0.0064   1.0000
  13.000   1.1659   0.05072   0.04639  -0.0011   0.0062   1.0000
  13.500   1.1423   0.05991   0.05599  -0.0032   0.0062   1.0000
  14.000   1.1127   0.07151   0.06797  -0.0085   0.0062   1.0000
  14.500   1.0855   0.08474   0.08153  -0.0163   0.0063   1.0000
  15.000   1.0462   0.10282   0.09994  -0.0277   0.0063   1.0000
  15.500   1.0166   0.12058   0.11797  -0.0386   0.0065   1.0000
  17.500   0.7006   0.20450   0.20248  -0.0793   0.0171   1.0000
  18.000   0.7095   0.21155   0.20955  -0.0827   0.0162   1.0000
  18.500   0.7205   0.21804   0.21606  -0.0856   0.0155   1.0000
  19.000   0.7290   0.22764   0.22565  -0.0885   0.0146   1.0000
  19.500   0.7372   0.23538   0.23341  -0.0923   0.0146   1.0000
  20.000   0.7444   0.24334   0.24138  -0.0963   0.0144   1.0000
