  
       XFOIL         Version 6.99
  
 Calculated polar for: HQ 1.5/11 AIRFOIL                               
  
 1 1 Reynolds number fixed          Mach number fixed         
  
 xtrf =   1.000 (top)        1.000 (bottom)  
 Mach =   0.000     Re =     0.400 e 6     Ncrit =   9.000
  
   alpha    CL        CD       CDp       CM     Top_Xtr  Bot_Xtr
  ------ -------- --------- --------- -------- -------- --------
   0.000   0.2066   0.00752   0.00248  -0.0448   0.7668   0.7647
   0.500   0.2613   0.00751   0.00245  -0.0443   0.7506   0.7813
   1.000   0.3159   0.00750   0.00245  -0.0437   0.7326   0.7978
   1.500   0.3701   0.00749   0.00248  -0.0432   0.7133   0.8154
   2.000   0.4241   0.00750   0.00253  -0.0425   0.6936   0.8344
   2.500   0.4774   0.00750   0.00259  -0.0418   0.6714   0.8548
   3.000   0.5291   0.00749   0.00267  -0.0406   0.6426   0.8794
   3.500   0.5771   0.00752   0.00271  -0.0385   0.5888   0.9186
   4.000   0.6416   0.00795   0.00287  -0.0404   0.4936   0.9730
   4.500   0.6988   0.00880   0.00331  -0.0416   0.3995   1.0000
   5.000   0.7444   0.00976   0.00383  -0.0403   0.3097   1.0000
   5.500   0.7921   0.01059   0.00445  -0.0393   0.2641   1.0000
   6.000   0.8412   0.01127   0.00504  -0.0385   0.2275   1.0000
   6.500   0.8898   0.01199   0.00566  -0.0376   0.1832   1.0000
   7.000   0.9322   0.01330   0.00655  -0.0359   0.1084   1.0000
   7.500   0.9740   0.01465   0.00771  -0.0341   0.0683   1.0000
   8.000   1.0139   0.01616   0.00913  -0.0319   0.0432   1.0000
   8.500   1.0517   0.01774   0.01078  -0.0294   0.0339   1.0000
   9.000   1.0851   0.01955   0.01265  -0.0264   0.0288   1.0000
   9.500   1.1159   0.02145   0.01474  -0.0230   0.0262   1.0000
  10.000   1.1447   0.02312   0.01655  -0.0195   0.0236   1.0000
  10.500   1.1577   0.02656   0.02012  -0.0143   0.0214   1.0000
  11.000   1.1823   0.02859   0.02240  -0.0108   0.0203   1.0000
  11.500   1.2024   0.03096   0.02499  -0.0075   0.0187   1.0000
  12.000   1.2181   0.03373   0.02793  -0.0044   0.0174   1.0000
  12.500   1.2229   0.03946   0.03395  -0.0014   0.0162   1.0000
  13.000   1.2234   0.04390   0.03877   0.0011   0.0157   1.0000
  13.500   1.2186   0.04918   0.04443   0.0024   0.0151   1.0000
  14.000   1.2048   0.05615   0.05178   0.0022   0.0145   1.0000
  14.500   1.1899   0.06386   0.05980   0.0002   0.0139   1.0000
  15.000   1.1711   0.07311   0.06933  -0.0036   0.0135   1.0000
  15.500   1.1289   0.08819   0.08487  -0.0117   0.0136   1.0000
  16.000   1.0619   0.11156   0.10874  -0.0265   0.0142   1.0000
  16.500   0.9632   0.14774   0.14530  -0.0490   0.0158   1.0000
  18.000   0.7019   0.20578   0.20375  -0.0786   0.0232   1.0000
  18.500   0.7132   0.21195   0.20995  -0.0816   0.0223   1.0000
  19.000   0.7249   0.21985   0.21786  -0.0839   0.0213   1.0000
  19.500   0.7226   0.22970   0.22771  -0.0905   0.0196   1.0000
  20.000   0.7324   0.23656   0.23461  -0.0939   0.0173   1.0000
   0.000   0.2066   0.00752   0.00248  -0.0448   0.7668   0.7647
   0.500   0.2613   0.00751   0.00245  -0.0443   0.7506   0.7813
   1.000   0.3159   0.00750   0.00245  -0.0437   0.7326   0.7978
   1.500   0.3701   0.00749   0.00248  -0.0432   0.7133   0.8154
   2.000   0.4241   0.00750   0.00253  -0.0425   0.6936   0.8344
   2.500   0.4774   0.00750   0.00259  -0.0418   0.6714   0.8548
   3.000   0.5291   0.00749   0.00267  -0.0406   0.6426   0.8794
   3.500   0.5771   0.00752   0.00271  -0.0385   0.5888   0.9186
   4.000   0.6416   0.00795   0.00287  -0.0404   0.4936   0.9730
   4.500   0.6988   0.00880   0.00331  -0.0416   0.3995   1.0000
   5.000   0.7444   0.00976   0.00383  -0.0403   0.3097   1.0000
   5.500   0.7921   0.01059   0.00445  -0.0393   0.2641   1.0000
   6.000   0.8412   0.01127   0.00504  -0.0385   0.2275   1.0000
   6.500   0.8898   0.01199   0.00566  -0.0376   0.1832   1.0000
   7.000   0.9322   0.01330   0.00655  -0.0359   0.1084   1.0000
   7.500   0.9740   0.01465   0.00771  -0.0341   0.0683   1.0000
   8.000   1.0139   0.01616   0.00913  -0.0319   0.0432   1.0000
   8.500   1.0517   0.01774   0.01078  -0.0294   0.0339   1.0000
   9.000   1.0851   0.01955   0.01265  -0.0264   0.0288   1.0000
   9.500   1.1159   0.02145   0.01474  -0.0230   0.0262   1.0000
  10.000   1.1447   0.02312   0.01655  -0.0195   0.0236   1.0000
  10.500   1.1577   0.02656   0.02012  -0.0143   0.0214   1.0000
  11.000   1.1823   0.02859   0.02240  -0.0108   0.0203   1.0000
  11.500   1.2024   0.03096   0.02499  -0.0075   0.0187   1.0000
  12.000   1.2181   0.03373   0.02793  -0.0044   0.0174   1.0000
  12.500   1.2229   0.03946   0.03395  -0.0014   0.0162   1.0000
  13.000   1.2234   0.04390   0.03877   0.0011   0.0157   1.0000
  13.500   1.2186   0.04918   0.04443   0.0024   0.0151   1.0000
  14.000   1.2048   0.05615   0.05178   0.0022   0.0145   1.0000
  14.500   1.1899   0.06386   0.05980   0.0002   0.0139   1.0000
  15.000   1.1711   0.07311   0.06933  -0.0036   0.0135   1.0000
  15.500   1.1289   0.08819   0.08487  -0.0117   0.0136   1.0000
  16.000   1.0619   0.11156   0.10874  -0.0265   0.0142   1.0000
  16.500   0.9632   0.14774   0.14530  -0.0490   0.0158   1.0000
  18.000   0.7019   0.20578   0.20375  -0.0786   0.0232   1.0000
  18.500   0.7132   0.21195   0.20995  -0.0816   0.0223   1.0000
  19.000   0.7249   0.21985   0.21786  -0.0839   0.0213   1.0000
  19.500   0.7226   0.22970   0.22771  -0.0905   0.0196   1.0000
  20.000   0.7324   0.23656   0.23461  -0.0939   0.0173   1.0000
   0.000   0.2066   0.00752   0.00248  -0.0448   0.7668   0.7647
   0.500   0.2613   0.00751   0.00245  -0.0443   0.7506   0.7813
   1.000   0.3159   0.00750   0.00245  -0.0437   0.7326   0.7978
   1.500   0.3701   0.00749   0.00248  -0.0432   0.7133   0.8154
   2.000   0.4241   0.00750   0.00253  -0.0425   0.6936   0.8344
   2.500   0.4774   0.00750   0.00259  -0.0418   0.6714   0.8548
   3.000   0.5291   0.00749   0.00267  -0.0406   0.6426   0.8794
   3.500   0.5771   0.00752   0.00271  -0.0385   0.5888   0.9186
   4.000   0.6416   0.00795   0.00287  -0.0404   0.4936   0.9730
   4.500   0.6988   0.00880   0.00331  -0.0416   0.3995   1.0000
   5.000   0.7444   0.00976   0.00383  -0.0403   0.3097   1.0000
   5.500   0.7921   0.01059   0.00445  -0.0393   0.2641   1.0000
   6.000   0.8412   0.01127   0.00504  -0.0385   0.2275   1.0000
   6.500   0.8898   0.01199   0.00566  -0.0376   0.1832   1.0000
   7.000   0.9322   0.01330   0.00655  -0.0359   0.1084   1.0000
   7.500   0.9740   0.01465   0.00771  -0.0341   0.0683   1.0000
   8.000   1.0139   0.01616   0.00913  -0.0319   0.0432   1.0000
   8.500   1.0517   0.01774   0.01078  -0.0294   0.0339   1.0000
   9.000   1.0851   0.01955   0.01265  -0.0264   0.0288   1.0000
   9.500   1.1159   0.02145   0.01474  -0.0230   0.0262   1.0000
  10.000   1.1447   0.02312   0.01655  -0.0195   0.0236   1.0000
  10.500   1.1577   0.02656   0.02012  -0.0143   0.0214   1.0000
  11.000   1.1823   0.02859   0.02240  -0.0108   0.0203   1.0000
  11.500   1.2024   0.03096   0.02499  -0.0075   0.0187   1.0000
  12.000   1.2181   0.03373   0.02793  -0.0044   0.0174   1.0000
  12.500   1.2229   0.03946   0.03395  -0.0014   0.0162   1.0000
  13.000   1.2234   0.04390   0.03877   0.0011   0.0157   1.0000
  13.500   1.2186   0.04918   0.04443   0.0024   0.0151   1.0000
  14.000   1.2048   0.05615   0.05178   0.0022   0.0145   1.0000
  14.500   1.1899   0.06386   0.05980   0.0002   0.0139   1.0000
  15.000   1.1711   0.07311   0.06933  -0.0036   0.0135   1.0000
  15.500   1.1289   0.08819   0.08487  -0.0117   0.0136   1.0000
  16.000   1.0619   0.11156   0.10874  -0.0265   0.0142   1.0000
  16.500   0.9632   0.14774   0.14530  -0.0490   0.0158   1.0000
  18.000   0.7019   0.20578   0.20375  -0.0786   0.0232   1.0000
  18.500   0.7132   0.21195   0.20995  -0.0816   0.0223   1.0000
  19.000   0.7249   0.21985   0.21786  -0.0839   0.0213   1.0000
  19.500   0.7226   0.22970   0.22771  -0.0905   0.0196   1.0000
  20.000   0.7324   0.23656   0.23461  -0.0939   0.0173   1.0000
