  
       XFOIL         Version 6.99
  
 Calculated polar for: HQ 2.0/12 AIRFOIL                               
  
 1 1 Reynolds number fixed          Mach number fixed         
  
 xtrf =   1.000 (top)        1.000 (bottom)  
 Mach =   0.000     Re =     0.400 e 6     Ncrit =   9.000
  
   alpha    CL        CD       CDp       CM     Top_Xtr  Bot_Xtr
  ------ -------- --------- --------- -------- -------- --------
   0.000   0.2719   0.00796   0.00277  -0.0584   0.7526   0.7400
   0.500   0.3265   0.00796   0.00274  -0.0579   0.7355   0.7570
   1.000   0.3812   0.00794   0.00273  -0.0575   0.7175   0.7715
   1.500   0.4359   0.00794   0.00274  -0.0570   0.6993   0.7866
   2.000   0.4901   0.00797   0.00277  -0.0565   0.6808   0.8028
   2.500   0.5436   0.00799   0.00283  -0.0558   0.6588   0.8206
   3.000   0.5963   0.00805   0.00291  -0.0550   0.6344   0.8407
   3.500   0.6471   0.00807   0.00301  -0.0538   0.6038   0.8643
   4.000   0.6955   0.00814   0.00312  -0.0520   0.5609   0.8992
   4.500   0.7610   0.00850   0.00337  -0.0542   0.4852   0.9746
   5.000   0.8085   0.00950   0.00385  -0.0534   0.3822   1.0000
   5.500   0.8516   0.01051   0.00446  -0.0517   0.3060   1.0000
   6.000   0.8974   0.01132   0.00510  -0.0503   0.2703   1.0000
   6.500   0.9441   0.01204   0.00575  -0.0491   0.2422   1.0000
   7.000   0.9911   0.01270   0.00638  -0.0478   0.2160   1.0000
   7.500   1.0359   0.01347   0.00706  -0.0463   0.1798   1.0000
   8.000   1.0737   0.01472   0.00798  -0.0439   0.1176   1.0000
   8.500   1.1074   0.01622   0.00924  -0.0409   0.0781   1.0000
   9.000   1.1409   0.01758   0.01055  -0.0378   0.0613   1.0000
   9.500   1.1707   0.01886   0.01186  -0.0341   0.0521   1.0000
  10.000   1.2009   0.02002   0.01314  -0.0305   0.0461   1.0000
  10.500   1.2231   0.02171   0.01489  -0.0263   0.0404   1.0000
  11.000   1.2552   0.02286   0.01620  -0.0237   0.0361   1.0000
  11.500   1.2769   0.02477   0.01817  -0.0204   0.0311   1.0000
  12.000   1.3078   0.02614   0.01968  -0.0183   0.0249   1.0000
  12.500   1.3264   0.02854   0.02210  -0.0154   0.0160   1.0000
  13.000   1.3356   0.03184   0.02550  -0.0124   0.0112   1.0000
  13.500   1.3379   0.03603   0.02986  -0.0098   0.0092   1.0000
  14.000   1.3399   0.04059   0.03467  -0.0082   0.0087   1.0000
  14.500   1.3376   0.04601   0.04035  -0.0074   0.0082   1.0000
  15.000   1.3305   0.05247   0.04708  -0.0076   0.0077   1.0000
  15.500   1.3184   0.06029   0.05518  -0.0092   0.0075   1.0000
  16.000   1.3023   0.06950   0.06466  -0.0123   0.0073   1.0000
  16.500   1.2809   0.08048   0.07594  -0.0169   0.0073   1.0000
  17.000   1.2542   0.09329   0.08903  -0.0231   0.0071   1.0000
  17.500   1.2249   0.10734   0.10334  -0.0303   0.0070   1.0000
  18.000   1.1995   0.12112   0.11738  -0.0377   0.0070   1.0000
  18.500   1.1749   0.13512   0.13159  -0.0455   0.0069   1.0000
  19.000   1.1563   0.14815   0.14484  -0.0531   0.0069   1.0000
  19.500   1.1398   0.16121   0.15811  -0.0609   0.0069   1.0000
  20.000   1.1228   0.17491   0.17201  -0.0694   0.0069   1.0000
