  
       XFOIL         Version 6.99
  
 Calculated polar for: HQ 2.0/8 AIRFOIL                                
  
 1 1 Reynolds number fixed          Mach number fixed         
  
 xtrf =   1.000 (top)        1.000 (bottom)  
 Mach =   0.000     Re =     0.400 e 6     Ncrit =   9.000
  
   alpha    CL        CD       CDp       CM     Top_Xtr  Bot_Xtr
  ------ -------- --------- --------- -------- -------- --------
   0.000   0.2702   0.00623   0.00199  -0.0598   0.8484   0.8694
   0.500   0.3211   0.00606   0.00188  -0.0581   0.8264   0.9205
   1.000   0.3959   0.00597   0.00176  -0.0621   0.8051   1.0000
   1.500   0.4499   0.00607   0.00176  -0.0618   0.7810   1.0000
   2.000   0.5038   0.00620   0.00180  -0.0613   0.7535   1.0000
   2.500   0.5571   0.00636   0.00191  -0.0607   0.7193   1.0000
   3.000   0.6096   0.00661   0.00204  -0.0598   0.6746   1.0000
   3.500   0.6580   0.00714   0.00221  -0.0582   0.5728   1.0000
   4.000   0.7040   0.00810   0.00265  -0.0565   0.4383   1.0000
   4.500   0.7488   0.00941   0.00330  -0.0551   0.2940   1.0000
   5.000   0.7968   0.01044   0.00398  -0.0542   0.2093   1.0000
   5.500   0.8408   0.01203   0.00491  -0.0529   0.0790   1.0000
   6.000   0.8889   0.01311   0.00587  -0.0519   0.0418   1.0000
   6.500   0.9346   0.01464   0.00731  -0.0503   0.0117   1.0000
   7.000   0.9797   0.01626   0.00912  -0.0486   0.0073   1.0000
   7.500   1.0155   0.01931   0.01261  -0.0453   0.0064   1.0000
   8.000   1.0508   0.02301   0.01672  -0.0421   0.0062   1.0000
   8.500   1.0808   0.02895   0.02331  -0.0385   0.0064   1.0000
   9.000   1.1075   0.03437   0.02931  -0.0350   0.0068   1.0000
   9.500   1.0968   0.04668   0.04293  -0.0273   0.0095   1.0000
