  
       XFOIL         Version 6.99
  
 Calculated polar for: HQ 2.0/10 AIRFOIL                               
  
 1 1 Reynolds number fixed          Mach number fixed         
  
 xtrf =   1.000 (top)        1.000 (bottom)  
 Mach =   0.000     Re =     0.400 e 6     Ncrit =   9.000
  
   alpha    CL        CD       CDp       CM     Top_Xtr  Bot_Xtr
  ------ -------- --------- --------- -------- -------- --------
   0.000   0.2731   0.00720   0.00240  -0.0596   0.7944   0.7902
   0.500   0.3266   0.00714   0.00232  -0.0587   0.7758   0.8116
   1.000   0.3802   0.00708   0.00229  -0.0580   0.7549   0.8333
   1.500   0.4331   0.00703   0.00227  -0.0571   0.7351   0.8582
   2.000   0.4845   0.00695   0.00228  -0.0558   0.7117   0.8907
   2.500   0.5429   0.00688   0.00231  -0.0560   0.6852   0.9478
   3.000   0.6130   0.00701   0.00238  -0.0592   0.6509   1.0000
   3.500   0.6652   0.00729   0.00252  -0.0586   0.6064   1.0000
   4.000   0.7142   0.00779   0.00275  -0.0573   0.5286   1.0000
   4.500   0.7577   0.00882   0.00319  -0.0554   0.4014   1.0000
   5.000   0.8041   0.00978   0.00379  -0.0541   0.3161   1.0000
   5.500   0.8516   0.01065   0.00446  -0.0530   0.2631   1.0000
   6.000   0.8993   0.01149   0.00511  -0.0520   0.2127   1.0000
   6.500   0.9453   0.01249   0.00584  -0.0507   0.1429   1.0000
   7.000   0.9865   0.01400   0.00696  -0.0489   0.0749   1.0000
   7.500   1.0303   0.01518   0.00805  -0.0474   0.0514   1.0000
   8.000   1.0751   0.01618   0.00913  -0.0459   0.0393   1.0000
   8.500   1.1186   0.01725   0.01022  -0.0443   0.0260   1.0000
   9.000   1.1549   0.01903   0.01195  -0.0417   0.0115   1.0000
   9.500   1.1888   0.02084   0.01395  -0.0386   0.0086   1.0000
  10.000   1.2180   0.02280   0.01615  -0.0351   0.0075   1.0000
  10.500   1.2326   0.02530   0.01888  -0.0296   0.0068   1.0000
  11.000   1.2320   0.02907   0.02297  -0.0232   0.0064   1.0000
  11.500   1.2380   0.03275   0.02696  -0.0187   0.0063   1.0000
  12.000   1.2401   0.03717   0.03172  -0.0151   0.0062   1.0000
  12.500   1.2353   0.04271   0.03766  -0.0124   0.0061   1.0000
  13.000   1.2227   0.04961   0.04499  -0.0111   0.0060   1.0000
  13.500   1.2019   0.05827   0.05406  -0.0120   0.0061   1.0000
  14.000   1.1752   0.06889   0.06508  -0.0156   0.0061   1.0000
  14.500   1.1400   0.08271   0.07930  -0.0225   0.0062   1.0000
  15.000   1.1054   0.09874   0.09567  -0.0321   0.0063   1.0000
  15.500   1.0653   0.11806   0.11529  -0.0440   0.0064   1.0000
  16.000   1.0336   0.13685   0.13432  -0.0553   0.0065   1.0000
  16.500   1.0133   0.15411   0.15175  -0.0655   0.0067   1.0000
  18.500   0.7514   0.22121   0.21928  -0.0946   0.0166   1.0000
  19.000   0.7608   0.23015   0.22822  -0.0968   0.0154   1.0000
  19.500   0.7682   0.23850   0.23658  -0.1007   0.0154   1.0000
  20.000   0.7757   0.24674   0.24484  -0.1045   0.0153   1.0000
