  
       XFOIL         Version 6.99
  
 Calculated polar for: HQ 2.1/9.5 AIRFOIL                              
  
 1 1 Reynolds number fixed          Mach number fixed         
  
 xtrf =   1.000 (top)        1.000 (bottom)  
 Mach =   0.000     Re =     0.400 e 6     Ncrit =   9.000
  
   alpha    CL        CD       CDp       CM     Top_Xtr  Bot_Xtr
  ------ -------- --------- --------- -------- -------- --------
   0.000   0.3060   0.00712   0.00251  -0.0687   0.8170   0.7970
   0.500   0.3600   0.00710   0.00251  -0.0679   0.8034   0.8188
   1.000   0.4136   0.00707   0.00251  -0.0671   0.7882   0.8420
   1.500   0.4661   0.00703   0.00253  -0.0660   0.7707   0.8677
   2.000   0.5168   0.00695   0.00251  -0.0644   0.7500   0.8991
   2.500   0.5698   0.00680   0.00245  -0.0632   0.7201   0.9477
   3.000   0.6344   0.00688   0.00236  -0.0650   0.6540   1.0000
   3.500   0.6812   0.00758   0.00249  -0.0632   0.5233   1.0000
   4.000   0.7286   0.00849   0.00296  -0.0620   0.4327   1.0000
   4.500   0.7779   0.00926   0.00346  -0.0610   0.3680   1.0000
   5.000   0.8270   0.01004   0.00399  -0.0601   0.3025   1.0000
   5.500   0.8742   0.01102   0.00459  -0.0590   0.2156   1.0000
   6.500   0.9630   0.01370   0.00655  -0.0561   0.0806   1.0000
   7.000   1.0077   0.01499   0.00775  -0.0545   0.0540   1.0000
   7.500   1.0508   0.01641   0.00922  -0.0526   0.0413   1.0000
   8.000   1.0915   0.01798   0.01085  -0.0505   0.0353   1.0000
   8.500   1.1310   0.01964   0.01268  -0.0481   0.0322   1.0000
   9.000   1.1709   0.02110   0.01426  -0.0460   0.0290   1.0000
   9.500   1.2010   0.02412   0.01744  -0.0427   0.0262   1.0000
  10.000   1.2378   0.02572   0.01927  -0.0403   0.0241   1.0000
  10.500   1.2683   0.02771   0.02142  -0.0372   0.0220   1.0000
  11.000   1.2883   0.03221   0.02620  -0.0335   0.0200   1.0000
  11.500   1.3042   0.03438   0.02872  -0.0287   0.0187   1.0000
  12.000   1.3149   0.03736   0.03198  -0.0245   0.0174   1.0000
  12.500   1.3200   0.04100   0.03586  -0.0209   0.0164   1.0000
  13.000   1.3147   0.04656   0.04169  -0.0180   0.0156   1.0000
  13.500   1.2802   0.05628   0.05196  -0.0162   0.0152   1.0000
  14.000   1.2559   0.06446   0.06056  -0.0175   0.0150   1.0000
  14.500   1.2210   0.07614   0.07267  -0.0223   0.0149   1.0000
  15.000   1.1762   0.09231   0.08922  -0.0317   0.0150   1.0000
