  
       XFOIL         Version 6.99
  
 Calculated polar for: HQ 2.5/9 B AIRFOIL                              
  
 1 1 Reynolds number fixed          Mach number fixed         
  
 xtrf =   1.000 (top)        1.000 (bottom)  
 Mach =   0.000     Re =     0.400 e 6     Ncrit =   9.000
  
   alpha    CL        CD       CDp       CM     Top_Xtr  Bot_Xtr
  ------ -------- --------- --------- -------- -------- --------
   0.000   0.3681   0.00702   0.00246  -0.0828   0.8249   0.8018
   0.500   0.4218   0.00700   0.00245  -0.0821   0.8111   0.8276
   1.000   0.4746   0.00696   0.00246  -0.0810   0.7962   0.8558
   1.500   0.5253   0.00687   0.00244  -0.0795   0.7794   0.8902
   2.000   0.5788   0.00668   0.00239  -0.0784   0.7584   0.9493
   2.500   0.6425   0.00672   0.00238  -0.0801   0.7293   1.0000
   3.000   0.6942   0.00691   0.00235  -0.0790   0.6647   1.0000
   3.500   0.7386   0.00771   0.00252  -0.0767   0.5205   1.0000
   4.000   0.7846   0.00872   0.00305  -0.0751   0.4252   1.0000
   4.500   0.8339   0.00946   0.00357  -0.0741   0.3679   1.0000
   5.000   0.8829   0.01022   0.00410  -0.0732   0.3085   1.0000
   5.500   0.9311   0.01105   0.00469  -0.0721   0.2427   1.0000
   6.000   0.9745   0.01242   0.00556  -0.0705   0.1411   1.0000
   6.500   1.0185   0.01378   0.00664  -0.0690   0.0871   1.0000
   7.000   1.0627   0.01511   0.00784  -0.0673   0.0572   1.0000
   7.500   1.1037   0.01676   0.00951  -0.0651   0.0412   1.0000
   8.000   1.1469   0.01802   0.01087  -0.0632   0.0351   1.0000
   9.000   1.2228   0.02141   0.01456  -0.0582   0.0273   1.0000
   9.500   1.2508   0.02438   0.01770  -0.0546   0.0240   1.0000
  10.000   1.2857   0.02606   0.01960  -0.0518   0.0214   1.0000
  10.500   1.3101   0.02831   0.02199  -0.0479   0.0190   1.0000
  11.500   1.3419   0.03526   0.02964  -0.0389   0.0158   1.0000
  12.000   1.3521   0.03802   0.03259  -0.0349   0.0144   1.0000
  12.500   1.3461   0.04409   0.03899  -0.0310   0.0134   1.0000
  13.000   1.3315   0.05040   0.04579  -0.0280   0.0130   1.0000
  13.500   1.3125   0.05779   0.05365  -0.0271   0.0126   1.0000
  14.000   1.2840   0.06763   0.06393  -0.0290   0.0124   1.0000
  14.500   1.2463   0.08081   0.07754  -0.0349   0.0123   1.0000
  15.000   1.2026   0.09809   0.09522  -0.0454   0.0124   1.0000
  15.500   1.1523   0.11967   0.11712  -0.0595   0.0128   1.0000
