  
       XFOIL         Version 6.99
  
 Calculated polar for: HQ 2.5/11 AIRFOIL                               
  
 1 1 Reynolds number fixed          Mach number fixed         
  
 xtrf =   1.000 (top)        1.000 (bottom)  
 Mach =   0.000     Re =     0.400 e 6     Ncrit =   9.000
  
   alpha    CL        CD       CDp       CM     Top_Xtr  Bot_Xtr
  ------ -------- --------- --------- -------- -------- --------
   0.000   0.3444   0.00772   0.00273  -0.0752   0.7756   0.7648
   0.500   0.3985   0.00767   0.00267  -0.0745   0.7584   0.7829
   1.000   0.4529   0.00765   0.00265  -0.0740   0.7417   0.8002
   1.500   0.5073   0.00765   0.00264  -0.0735   0.7247   0.8172
   2.000   0.5612   0.00766   0.00268  -0.0729   0.7062   0.8361
   2.500   0.6130   0.00763   0.00267  -0.0718   0.6784   0.8582
   3.000   0.6627   0.00760   0.00272  -0.0702   0.6465   0.8902
   3.500   0.7222   0.00759   0.00279  -0.0708   0.6067   0.9663
   4.000   0.7795   0.00795   0.00296  -0.0715   0.5490   1.0000
   4.500   0.8269   0.00865   0.00331  -0.0702   0.4741   1.0000
   5.000   0.8742   0.00942   0.00383  -0.0690   0.4131   1.0000
   5.500   0.9203   0.01027   0.00440  -0.0676   0.3373   1.0000
   6.000   0.9630   0.01139   0.00517  -0.0658   0.2709   1.0000
   6.500   1.0076   0.01236   0.00591  -0.0643   0.2145   1.0000
   7.000   1.0510   0.01339   0.00673  -0.0627   0.1653   1.0000
   7.500   1.0936   0.01443   0.00764  -0.0610   0.1307   1.0000
   8.000   1.1329   0.01570   0.00867  -0.0588   0.0821   1.0000
   8.500   1.1578   0.01814   0.01072  -0.0544   0.0249   1.0000
   9.000   1.1855   0.02004   0.01277  -0.0503   0.0204   1.0000
   9.500   1.2075   0.02187   0.01480  -0.0454   0.0185   1.0000
  10.000   1.2259   0.02398   0.01710  -0.0405   0.0172   1.0000
  10.500   1.2393   0.02660   0.01988  -0.0357   0.0160   1.0000
  11.000   1.2463   0.03013   0.02356  -0.0311   0.0151   1.0000
  11.500   1.2563   0.03404   0.02770  -0.0274   0.0142   1.0000
  12.000   1.2715   0.03752   0.03143  -0.0247   0.0135   1.0000
  12.500   1.2834   0.04162   0.03582  -0.0222   0.0129   1.0000
  13.000   1.2910   0.04644   0.04094  -0.0201   0.0125   1.0000
  13.500   1.2925   0.05207   0.04688  -0.0187   0.0121   1.0000
  14.000   1.2875   0.05862   0.05376  -0.0182   0.0119   1.0000
  14.500   1.2774   0.06594   0.06136  -0.0190   0.0114   1.0000
  15.000   1.2607   0.07487   0.07059  -0.0213   0.0112   1.0000
  15.500   1.2372   0.08584   0.08190  -0.0255   0.0111   1.0000
  16.000   1.2086   0.09895   0.09538  -0.0324   0.0111   1.0000
  16.500   1.1766   0.11417   0.11094  -0.0414   0.0111   1.0000
