  
       XFOIL         Version 6.99
  
 Calculated polar for: HQ 2.5/12 AIRFOIL                               
  
 1 1 Reynolds number fixed          Mach number fixed         
  
 xtrf =   1.000 (top)        1.000 (bottom)  
 Mach =   0.000     Re =     0.400 e 6     Ncrit =   9.000
  
   alpha    CL        CD       CDp       CM     Top_Xtr  Bot_Xtr
  ------ -------- --------- --------- -------- -------- --------
   0.000   0.3420   0.00806   0.00287  -0.0740   0.7536   0.7432
   0.500   0.3964   0.00804   0.00283  -0.0735   0.7359   0.7597
   1.000   0.4513   0.00805   0.00282  -0.0731   0.7201   0.7743
   1.500   0.5058   0.00805   0.00282  -0.0727   0.7028   0.7895
   2.000   0.5599   0.00808   0.00284  -0.0722   0.6842   0.8059
   2.500   0.6130   0.00809   0.00290  -0.0715   0.6623   0.8242
   3.000   0.6653   0.00813   0.00298  -0.0706   0.6387   0.8447
   3.500   0.7154   0.00815   0.00307  -0.0693   0.6074   0.8710
   4.000   0.7633   0.00818   0.00318  -0.0674   0.5697   0.9162
   5.000   0.8757   0.00924   0.00380  -0.0686   0.4418   1.0000
   5.500   0.9184   0.01021   0.00440  -0.0666   0.3632   1.0000
   6.000   0.9618   0.01114   0.00506  -0.0649   0.3052   1.0000
   6.500   1.0054   0.01205   0.00580  -0.0632   0.2666   1.0000
   7.000   1.0493   0.01289   0.00651  -0.0615   0.2286   1.0000
   7.500   1.0924   0.01373   0.00726  -0.0597   0.1971   1.0000
   8.000   1.1335   0.01464   0.00808  -0.0577   0.1620   1.0000
   8.500   1.1715   0.01569   0.00900  -0.0553   0.1302   1.0000
   9.000   1.2047   0.01689   0.01007  -0.0521   0.1000   1.0000
   9.500   1.2326   0.01821   0.01129  -0.0481   0.0708   1.0000
  10.000   1.2407   0.02087   0.01352  -0.0418   0.0185   1.0000
  10.500   1.2569   0.02319   0.01590  -0.0370   0.0108   1.0000
  11.000   1.2764   0.02538   0.01828  -0.0332   0.0093   1.0000
  11.500   1.2856   0.02848   0.02161  -0.0290   0.0083   1.0000
  12.000   1.2920   0.03201   0.02540  -0.0254   0.0078   1.0000
  12.500   1.2969   0.03596   0.02959  -0.0226   0.0075   1.0000
  13.000   1.2967   0.04074   0.03461  -0.0205   0.0074   1.0000
  13.500   1.2924   0.04639   0.04050  -0.0192   0.0072   1.0000
  14.000   1.2862   0.05275   0.04711  -0.0189   0.0071   1.0000
  14.500   1.2764   0.06017   0.05480  -0.0196   0.0069   1.0000
  15.000   1.2666   0.06827   0.06315  -0.0213   0.0068   1.0000
  15.500   1.2551   0.07722   0.07238  -0.0239   0.0068   1.0000
  16.000   1.2416   0.08713   0.08260  -0.0276   0.0068   1.0000
  16.500   1.2257   0.09809   0.09387  -0.0323   0.0068   1.0000
  17.000   1.2065   0.11032   0.10641  -0.0382   0.0068   1.0000
  17.500   1.1850   0.12371   0.12012  -0.0454   0.0070   1.0000
  18.000   1.1613   0.13827   0.13500  -0.0539   0.0071   1.0000
  18.500   1.1359   0.15406   0.15108  -0.0637   0.0072   1.0000
  19.000   1.1067   0.17193   0.16924  -0.0750   0.0074   1.0000
  19.500   1.0718   0.19318   0.19072  -0.0883   0.0077   1.0000
