  
       XFOIL         Version 6.99
  
 Calculated polar for: HQ 2.5/8 AIRFOIL                                
  
 1 1 Reynolds number fixed          Mach number fixed         
  
 xtrf =   1.000 (top)        1.000 (bottom)  
 Mach =   0.000     Re =     0.400 e 6     Ncrit =   9.000
  
   alpha    CL        CD       CDp       CM     Top_Xtr  Bot_Xtr
  ------ -------- --------- --------- -------- -------- --------
   0.000   0.3376   0.00631   0.00209  -0.0751   0.8491   0.8724
   0.500   0.3930   0.00607   0.00192  -0.0744   0.8284   0.9433
   1.000   0.4591   0.00607   0.00181  -0.0767   0.8062   1.0000
   1.500   0.5137   0.00617   0.00181  -0.0765   0.7816   1.0000
   2.000   0.5679   0.00630   0.00184  -0.0761   0.7544   1.0000
   2.500   0.6212   0.00648   0.00191  -0.0754   0.7199   1.0000
   3.000   0.6738   0.00672   0.00209  -0.0747   0.6786   1.0000
   3.500   0.7253   0.00707   0.00231  -0.0737   0.6236   1.0000
   4.000   0.7704   0.00792   0.00267  -0.0717   0.4937   1.0000
   4.500   0.8120   0.00940   0.00335  -0.0696   0.3252   1.0000
   5.500   0.8915   0.01357   0.00575  -0.0655   0.0097   1.0000
   6.500   0.9823   0.01672   0.00957  -0.0614   0.0069   1.0000
   7.000   1.0198   0.01947   0.01262  -0.0582   0.0072   1.0000
   7.500   1.0569   0.02366   0.01722  -0.0547   0.0081   1.0000
   8.000   1.0981   0.02905   0.02301  -0.0520   0.0104   1.0000
