  
       XFOIL         Version 6.99
  
 Calculated polar for: HQ 2.5/10 AIRFOIL                               
  
 1 1 Reynolds number fixed          Mach number fixed         
  
 xtrf =   1.000 (top)        1.000 (bottom)  
 Mach =   0.000     Re =     0.400 e 6     Ncrit =   9.000
  
   alpha    CL        CD       CDp       CM     Top_Xtr  Bot_Xtr
  ------ -------- --------- --------- -------- -------- --------
   0.000   0.3417   0.00727   0.00247  -0.0749   0.7956   0.7907
   0.500   0.3955   0.00722   0.00239  -0.0742   0.7778   0.8106
   1.000   0.4490   0.00718   0.00235  -0.0736   0.7586   0.8334
   1.500   0.5014   0.00712   0.00231  -0.0725   0.7380   0.8597
   2.000   0.5518   0.00700   0.00231  -0.0711   0.7148   0.8994
   2.500   0.6221   0.00693   0.00231  -0.0740   0.6871   1.0000
   3.000   0.6761   0.00715   0.00239  -0.0738   0.6542   1.0000
   3.500   0.7288   0.00741   0.00257  -0.0733   0.6143   1.0000
   4.000   0.7794   0.00781   0.00280  -0.0723   0.5582   1.0000
   4.500   0.8261   0.00851   0.00318  -0.0708   0.4726   1.0000
   5.000   0.8713   0.00944   0.00374  -0.0691   0.3854   1.0000
   5.500   0.9138   0.01065   0.00448  -0.0673   0.2860   1.0000
   6.000   0.9582   0.01174   0.00523  -0.0658   0.2144   1.0000
   6.500   1.0035   0.01272   0.00601  -0.0644   0.1607   1.0000
   7.000   1.0440   0.01417   0.00704  -0.0624   0.0866   1.0000
   7.500   1.0739   0.01675   0.00908  -0.0587   0.0101   1.0000
   8.000   1.1135   0.01829   0.01089  -0.0561   0.0082   1.0000
   8.500   1.1478   0.02016   0.01302  -0.0529   0.0074   1.0000
   9.000   1.1746   0.02242   0.01553  -0.0487   0.0071   1.0000
   9.500   1.1904   0.02509   0.01845  -0.0429   0.0070   1.0000
  10.000   1.2044   0.02831   0.02198  -0.0375   0.0070   1.0000
  10.500   1.2185   0.03243   0.02648  -0.0327   0.0073   1.0000
  11.000   1.2281   0.03782   0.03232  -0.0283   0.0078   1.0000
  11.500   1.2217   0.04490   0.03994  -0.0239   0.0084   1.0000
  12.000   1.2246   0.05057   0.04591  -0.0211   0.0093   1.0000
  12.500   1.1786   0.06221   0.05853  -0.0186   0.0125   1.0000
  13.000   1.1323   0.07465   0.07142  -0.0216   0.0133   1.0000
  13.500   1.0932   0.08797   0.08508  -0.0284   0.0135   1.0000
  14.000   1.0586   0.10339   0.10079  -0.0385   0.0132   1.0000
  14.500   1.0235   0.12252   0.12017  -0.0516   0.0126   1.0000
  15.000   0.9878   0.14496   0.14277  -0.0657   0.0118   1.0000
