  
       XFOIL         Version 6.99
  
 Calculated polar for: HQ 3.0/12 AIRFOIL                               
  
 1 1 Reynolds number fixed          Mach number fixed         
  
 xtrf =   1.000 (top)        1.000 (bottom)  
 Mach =   0.000     Re =     0.400 e 6     Ncrit =   9.000
  
   alpha    CL        CD       CDp       CM     Top_Xtr  Bot_Xtr
  ------ -------- --------- --------- -------- -------- --------
   0.000   0.4104   0.00818   0.00297  -0.0888   0.7548   0.7318
   0.500   0.4654   0.00819   0.00295  -0.0884   0.7402   0.7484
   1.000   0.5204   0.00820   0.00294  -0.0881   0.7252   0.7629
   1.500   0.5748   0.00821   0.00294  -0.0877   0.7081   0.7788
   2.000   0.6282   0.00821   0.00296  -0.0870   0.6868   0.7959
   2.500   0.6813   0.00825   0.00301  -0.0863   0.6673   0.8143
   3.000   0.7332   0.00827   0.00310  -0.0854   0.6440   0.8364
   3.500   0.7832   0.00829   0.00320  -0.0840   0.6162   0.8649
   4.000   0.8321   0.00826   0.00330  -0.0823   0.5814   0.9251
   4.500   0.8934   0.00862   0.00352  -0.0839   0.5321   1.0000
   5.000   0.9403   0.00925   0.00390  -0.0825   0.4729   1.0000
   5.500   0.9842   0.01006   0.00443  -0.0807   0.4110   1.0000
   6.000   1.0266   0.01096   0.00508  -0.0786   0.3510   1.0000
   6.500   1.0676   0.01194   0.00580  -0.0764   0.2988   1.0000
   7.000   1.1080   0.01292   0.00659  -0.0742   0.2546   1.0000
   7.500   1.1474   0.01390   0.00741  -0.0718   0.2148   1.0000
   8.000   1.1861   0.01486   0.00826  -0.0694   0.1820   1.0000
   8.500   1.2210   0.01588   0.00920  -0.0663   0.1528   1.0000
   9.000   1.2523   0.01695   0.01020  -0.0627   0.1284   1.0000
   9.500   1.2815   0.01819   0.01136  -0.0590   0.1039   1.0000
  10.000   1.3083   0.01962   0.01274  -0.0552   0.0797   1.0000
  10.500   1.3329   0.02125   0.01433  -0.0515   0.0601   1.0000
  11.000   1.3535   0.02324   0.01628  -0.0477   0.0439   1.0000
  11.500   1.3744   0.02532   0.01840  -0.0443   0.0322   1.0000
  12.000   1.3880   0.02810   0.02118  -0.0407   0.0187   1.0000
  12.500   1.3954   0.03159   0.02472  -0.0371   0.0108   1.0000
  13.000   1.4047   0.03516   0.02849  -0.0342   0.0089   1.0000
  13.500   1.4105   0.03928   0.03283  -0.0320   0.0081   1.0000
  14.000   1.4090   0.04445   0.03823  -0.0302   0.0076   1.0000
  14.500   1.3983   0.05113   0.04519  -0.0294   0.0072   1.0000
  15.000   1.3892   0.05830   0.05266  -0.0298   0.0070   1.0000
  15.500   1.3758   0.06675   0.06140  -0.0314   0.0068   1.0000
  16.000   1.3620   0.07604   0.07097  -0.0342   0.0066   1.0000
  16.500   1.3416   0.08717   0.08239  -0.0385   0.0065   1.0000
  17.000   1.3209   0.09901   0.09451  -0.0437   0.0063   1.0000
  17.500   1.2990   0.11161   0.10738  -0.0498   0.0064   1.0000
  18.000   1.2787   0.12434   0.12035  -0.0563   0.0062   1.0000
  18.500   1.2617   0.13666   0.13290  -0.0630   0.0061   1.0000
  19.000   1.2474   0.14853   0.14498  -0.0698   0.0061   1.0000
  19.500   1.2353   0.16029   0.15694  -0.0768   0.0060   1.0000
  20.000   1.2243   0.17201   0.16888  -0.0841   0.0060   1.0000
