  
       XFOIL         Version 6.99
  
 Calculated polar for: HQ 3.0/15 AIRFOIL                               
  
 1 1 Reynolds number fixed          Mach number fixed         
  
 xtrf =   1.000 (top)        1.000 (bottom)  
 Mach =   0.000     Re =     0.400 e 6     Ncrit =   9.000
  
   alpha    CL        CD       CDp       CM     Top_Xtr  Bot_Xtr
  ------ -------- --------- --------- -------- -------- --------
   0.000   0.4076   0.00915   0.00358  -0.0868   0.7120   0.6832
   0.500   0.4629   0.00918   0.00360  -0.0865   0.6992   0.6986
   1.000   0.5185   0.00922   0.00360  -0.0863   0.6866   0.7109
   1.500   0.5740   0.00926   0.00360  -0.0861   0.6731   0.7228
   2.000   0.6282   0.00930   0.00364  -0.0857   0.6575   0.7348
   2.500   0.6808   0.00933   0.00371  -0.0849   0.6384   0.7471
   3.000   0.7333   0.00939   0.00380  -0.0842   0.6191   0.7599
   3.500   0.7849   0.00949   0.00390  -0.0833   0.5976   0.7739
   4.000   0.8350   0.00962   0.00405  -0.0822   0.5727   0.7886
   4.500   0.8827   0.00982   0.00424  -0.0806   0.5424   0.8047
   5.000   0.9275   0.01011   0.00450  -0.0785   0.5064   0.8225
   5.500   0.9684   0.01052   0.00483  -0.0758   0.4653   0.8444
   6.000   1.0040   0.01101   0.00527  -0.0721   0.4231   0.8736
   6.500   1.0523   0.01158   0.00586  -0.0713   0.3755   1.0000
   7.000   1.0881   0.01244   0.00652  -0.0684   0.3349   1.0000
   7.500   1.1169   0.01336   0.00726  -0.0641   0.3029   1.0000
   8.000   1.1463   0.01432   0.00813  -0.0600   0.2767   1.0000
   8.500   1.1748   0.01539   0.00910  -0.0561   0.2535   1.0000
   9.000   1.2052   0.01645   0.01014  -0.0528   0.2318   1.0000
   9.500   1.2331   0.01769   0.01132  -0.0493   0.2103   1.0000
  10.000   1.2584   0.01915   0.01272  -0.0458   0.1916   1.0000
  10.500   1.2855   0.02062   0.01420  -0.0429   0.1732   1.0000
  11.000   1.3106   0.02230   0.01588  -0.0400   0.1582   1.0000
  11.500   1.3345   0.02414   0.01775  -0.0372   0.1429   1.0000
  12.000   1.3567   0.02620   0.01981  -0.0346   0.1271   1.0000
  12.500   1.3775   0.02847   0.02212  -0.0322   0.1145   1.0000
  13.000   1.3957   0.03103   0.02472  -0.0299   0.1015   1.0000
  13.500   1.4115   0.03393   0.02766  -0.0278   0.0897   1.0000
  14.000   1.4243   0.03724   0.03101  -0.0259   0.0785   1.0000
  14.500   1.4341   0.04102   0.03485  -0.0243   0.0686   1.0000
  15.000   1.4400   0.04541   0.03929  -0.0230   0.0602   1.0000
  15.500   1.4490   0.04972   0.04375  -0.0223   0.0542   1.0000
  16.000   1.4516   0.05498   0.04914  -0.0220   0.0489   1.0000
  16.500   1.4526   0.06073   0.05500  -0.0223   0.0429   1.0000
  17.000   1.4529   0.06687   0.06133  -0.0230   0.0394   1.0000
  17.500   1.4461   0.07429   0.06888  -0.0245   0.0350   1.0000
  18.000   1.4397   0.08199   0.07677  -0.0266   0.0303   1.0000
  18.500   1.4254   0.09127   0.08623  -0.0297   0.0267   1.0000
  19.000   1.4052   0.10188   0.09702  -0.0339   0.0226   1.0000
  19.500   1.3803   0.11372   0.10905  -0.0392   0.0179   1.0000
  20.000   1.3543   0.12618   0.12172  -0.0453   0.0152   1.0000
