  
       XFOIL         Version 6.99
  
 Calculated polar for: HQ 3.0/9 AIRFOIL                                
  
 1 1 Reynolds number fixed          Mach number fixed         
  
 xtrf =   1.000 (top)        1.000 (bottom)  
 Mach =   0.000     Re =     0.400 e 6     Ncrit =   9.000
  
   alpha    CL        CD       CDp       CM     Top_Xtr  Bot_Xtr
  ------ -------- --------- --------- -------- -------- --------
   0.000   0.4095   0.00697   0.00242  -0.0903   0.8221   0.8180
   0.500   0.4619   0.00686   0.00232  -0.0893   0.8028   0.8460
   1.000   0.5128   0.00669   0.00221  -0.0879   0.7835   0.8863
   1.500   0.5774   0.00651   0.00208  -0.0895   0.7594   1.0000
   2.000   0.6332   0.00665   0.00211  -0.0896   0.7352   1.0000
   2.500   0.6876   0.00683   0.00220  -0.0893   0.7072   1.0000
   3.000   0.7409   0.00706   0.00232  -0.0887   0.6732   1.0000
   3.500   0.7929   0.00737   0.00253  -0.0879   0.6303   1.0000
   4.000   0.8431   0.00780   0.00279  -0.0869   0.5713   1.0000
   4.500   0.8899   0.00851   0.00322  -0.0853   0.4889   1.0000
   5.000   0.9342   0.00953   0.00383  -0.0834   0.3950   1.0000
   5.500   0.9746   0.01096   0.00462  -0.0813   0.2726   1.0000
   6.000   1.0190   0.01209   0.00542  -0.0798   0.1970   1.0000
   6.500   1.0638   0.01318   0.00625  -0.0784   0.1387   1.0000
   7.000   1.1044   0.01471   0.00739  -0.0764   0.0679   1.0000
   7.500   1.1406   0.01671   0.00908  -0.0737   0.0140   1.0000
   8.000   1.1803   0.01831   0.01084  -0.0711   0.0082   1.0000
   8.500   1.2169   0.02009   0.01288  -0.0682   0.0073   1.0000
   9.000   1.2459   0.02236   0.01543  -0.0642   0.0070   1.0000
   9.500   1.2653   0.02506   0.01840  -0.0589   0.0068   1.0000
  10.000   1.2779   0.02815   0.02178  -0.0532   0.0062   1.0000
  10.500   1.2797   0.03357   0.02763  -0.0472   0.0057   1.0000
  11.000   1.2856   0.03879   0.03327  -0.0425   0.0057   1.0000
  11.500   1.2814   0.04472   0.03969  -0.0381   0.0057   1.0000
  12.000   1.2641   0.05218   0.04767  -0.0347   0.0057   1.0000
  12.500   1.2440   0.06003   0.05593  -0.0336   0.0058   1.0000
  13.000   1.2258   0.06835   0.06461  -0.0348   0.0059   1.0000
  13.500   1.2009   0.07899   0.07561  -0.0388   0.0059   1.0000
  14.000   1.1714   0.09239   0.08936  -0.0460   0.0060   1.0000
  14.500   1.1442   0.10781   0.10510  -0.0557   0.0061   1.0000
  15.000   1.1097   0.12729   0.12488  -0.0683   0.0062   1.0000
  16.000   1.0001   0.19287   0.19066  -0.1032   0.0090   1.0000
