  
       XFOIL         Version 6.99
  
 Calculated polar for: HQ 3.0/11 AIRFOIL                               
  
 1 1 Reynolds number fixed          Mach number fixed         
  
 xtrf =   1.000 (top)        1.000 (bottom)  
 Mach =   0.000     Re =     0.400 e 6     Ncrit =   9.000
  
   alpha    CL        CD       CDp       CM     Top_Xtr  Bot_Xtr
  ------ -------- --------- --------- -------- -------- --------
   0.000   0.4060   0.00753   0.00258  -0.0880   0.7763   0.7497
   0.500   0.4601   0.00747   0.00255  -0.0874   0.7608   0.7778
   1.000   0.5133   0.00747   0.00259  -0.0865   0.7448   0.8139
   1.500   0.5647   0.00746   0.00264  -0.0853   0.7255   0.8596
   2.000   0.6128   0.00732   0.00259  -0.0832   0.7037   0.9109
   2.500   0.6826   0.00727   0.00257  -0.0861   0.6800   1.0000
   3.000   0.7366   0.00746   0.00268  -0.0858   0.6539   1.0000
   3.500   0.7892   0.00770   0.00282  -0.0853   0.6208   1.0000
   4.000   0.8401   0.00803   0.00303  -0.0844   0.5778   1.0000
   4.500   0.8886   0.00852   0.00333  -0.0831   0.5216   1.0000
   5.000   0.9339   0.00926   0.00378  -0.0813   0.4537   1.0000
   5.500   0.9776   0.01016   0.00439  -0.0794   0.3852   1.0000
   6.000   1.0205   0.01112   0.00508  -0.0775   0.3200   1.0000
   6.500   1.0618   0.01219   0.00586  -0.0755   0.2611   1.0000
   7.000   1.1044   0.01316   0.00665  -0.0736   0.2148   1.0000
   7.500   1.1452   0.01420   0.00749  -0.0716   0.1687   1.0000
   8.000   1.1854   0.01523   0.00841  -0.0695   0.1362   1.0000
   8.500   1.2223   0.01642   0.00947  -0.0669   0.0997   1.0000
   9.000   1.2530   0.01783   0.01070  -0.0634   0.0656   1.0000
   9.500   1.2798   0.01931   0.01210  -0.0592   0.0427   1.0000
  10.000   1.3023   0.02113   0.01386  -0.0548   0.0219   1.0000
  10.500   1.3198   0.02339   0.01611  -0.0501   0.0103   1.0000
  11.000   1.3379   0.02572   0.01863  -0.0459   0.0083   1.0000
  11.500   1.3543   0.02828   0.02142  -0.0421   0.0075   1.0000
  12.000   1.3654   0.03140   0.02478  -0.0384   0.0071   1.0000
  12.500   1.3717   0.03515   0.02879  -0.0352   0.0068   1.0000
  13.000   1.3676   0.04021   0.03410  -0.0324   0.0063   1.0000
  13.500   1.3557   0.04661   0.04078  -0.0306   0.0060   1.0000
  14.000   1.3444   0.05364   0.04810  -0.0301   0.0059   1.0000
  14.500   1.3368   0.06090   0.05564  -0.0308   0.0058   1.0000
  15.000   1.3245   0.06955   0.06459  -0.0327   0.0057   1.0000
  15.500   1.3086   0.07950   0.07485  -0.0359   0.0057   1.0000
  16.000   1.2917   0.09038   0.08603  -0.0403   0.0057   1.0000
  16.500   1.2727   0.10236   0.09832  -0.0458   0.0057   1.0000
  17.000   1.2512   0.11550   0.11178  -0.0525   0.0056   1.0000
  17.500   1.2289   0.12945   0.12603  -0.0602   0.0057   1.0000
  18.000   1.2068   0.14407   0.14093  -0.0689   0.0057   1.0000
  18.500   1.1832   0.15974   0.15687  -0.0785   0.0058   1.0000
  19.000   1.1584   0.17671   0.17411  -0.0893   0.0059   1.0000
  19.500   1.1328   0.19528   0.19290  -0.1011   0.0060   1.0000
