  
       XFOIL         Version 6.99
  
 Calculated polar for: HQ 3.0/10 AIRFOIL                               
  
 1 1 Reynolds number fixed          Mach number fixed         
  
 xtrf =   1.000 (top)        1.000 (bottom)  
 Mach =   0.000     Re =     0.400 e 6     Ncrit =   9.000
  
   alpha    CL        CD       CDp       CM     Top_Xtr  Bot_Xtr
  ------ -------- --------- --------- -------- -------- --------
   0.000   0.4089   0.00738   0.00262  -0.0895   0.7974   0.7813
   0.500   0.4633   0.00733   0.00252  -0.0890   0.7809   0.8020
   1.000   0.5171   0.00729   0.00246  -0.0883   0.7638   0.8242
   1.500   0.5692   0.00721   0.00243  -0.0872   0.7412   0.8518
   2.000   0.6194   0.00710   0.00241  -0.0857   0.7188   0.8952
   3.000   0.7397   0.00726   0.00252  -0.0876   0.6637   1.0000
   3.500   0.7926   0.00752   0.00268  -0.0871   0.6268   1.0000
   4.000   0.8436   0.00789   0.00292  -0.0862   0.5781   1.0000
   4.500   0.8915   0.00848   0.00326  -0.0848   0.5106   1.0000
   5.000   0.9366   0.00933   0.00379  -0.0830   0.4308   1.0000
   5.500   0.9805   0.01032   0.00445  -0.0813   0.3526   1.0000
   6.000   1.0223   0.01151   0.00522  -0.0793   0.2711   1.0000
   6.500   1.0647   0.01266   0.00604  -0.0775   0.2014   1.0000
   7.000   1.1083   0.01369   0.00688  -0.0759   0.1547   1.0000
   7.500   1.1501   0.01482   0.00783  -0.0741   0.1107   1.0000
   8.000   1.1864   0.01640   0.00910  -0.0715   0.0574   1.0000
   8.500   1.2210   0.01804   0.01058  -0.0686   0.0255   1.0000
   9.000   1.2513   0.01994   0.01246  -0.0648   0.0093   1.0000
   9.500   1.2777   0.02170   0.01441  -0.0604   0.0077   1.0000
  10.000   1.2949   0.02401   0.01702  -0.0550   0.0072   1.0000
  10.500   1.3091   0.02656   0.01984  -0.0499   0.0069   1.0000
  11.000   1.3208   0.02947   0.02299  -0.0453   0.0064   1.0000
  11.500   1.3309   0.03270   0.02646  -0.0415   0.0059   1.0000
  12.000   1.3347   0.03683   0.03086  -0.0379   0.0057   1.0000
  12.500   1.3342   0.04180   0.03612  -0.0350   0.0056   1.0000
  13.000   1.3306   0.04755   0.04218  -0.0331   0.0054   1.0000
  13.500   1.3226   0.05436   0.04936  -0.0322   0.0054   1.0000
  14.000   1.3082   0.06267   0.05805  -0.0328   0.0054   1.0000
  14.500   1.2897   0.07235   0.06808  -0.0352   0.0053   1.0000
  15.000   1.2647   0.08441   0.08058  -0.0398   0.0054   1.0000
  15.500   1.2334   0.09908   0.09568  -0.0471   0.0055   1.0000
  16.000   1.1989   0.11598   0.11297  -0.0568   0.0056   1.0000
  16.500   1.1599   0.13577   0.13313  -0.0689   0.0058   1.0000
  17.000   1.1196   0.15793   0.15557  -0.0827   0.0060   1.0000
