  
       XFOIL         Version 6.99
  
 Calculated polar for: HQ 3.0/8 AIRFOIL                                
  
 1 1 Reynolds number fixed          Mach number fixed         
  
 xtrf =   1.000 (top)        1.000 (bottom)  
 Mach =   0.000     Re =     0.400 e 6     Ncrit =   9.000
  
   alpha    CL        CD       CDp       CM     Top_Xtr  Bot_Xtr
  ------ -------- --------- --------- -------- -------- --------
   0.000   0.4048   0.00643   0.00223  -0.0899   0.8454   0.8694
   0.500   0.4679   0.00613   0.00200  -0.0910   0.8281   1.0000
   1.000   0.5238   0.00621   0.00193  -0.0911   0.8065   1.0000
   1.500   0.5784   0.00630   0.00189  -0.0907   0.7806   1.0000
   2.000   0.6328   0.00644   0.00193  -0.0903   0.7555   1.0000
   2.500   0.6866   0.00661   0.00204  -0.0898   0.7251   1.0000
   3.000   0.7394   0.00684   0.00218  -0.0891   0.6876   1.0000
   3.500   0.7908   0.00718   0.00238  -0.0881   0.6376   1.0000
   4.000   0.8395   0.00773   0.00271  -0.0867   0.5582   1.0000
   4.500   0.8800   0.00907   0.00328  -0.0841   0.4016   1.0000
   5.000   0.9211   0.01062   0.00412  -0.0822   0.2561   1.0000
   5.500   0.9680   0.01164   0.00487  -0.0810   0.1852   1.0000
   6.000   1.0095   0.01330   0.00590  -0.0793   0.0767   1.0000
   6.500   1.0501   0.01520   0.00745  -0.0771   0.0116   1.0000
   7.000   1.0933   0.01683   0.00937  -0.0748   0.0075   1.0000
   7.500   1.1311   0.01903   0.01191  -0.0718   0.0072   1.0000
   8.000   1.1615   0.02220   0.01543  -0.0677   0.0072   1.0000
   8.500   1.1929   0.02596   0.01955  -0.0640   0.0071   1.0000
   9.000   1.2270   0.02895   0.02288  -0.0611   0.0061   1.0000
   9.500   1.2496   0.03486   0.02943  -0.0566   0.0062   1.0000
  10.000   1.2488   0.04261   0.03795  -0.0501   0.0066   1.0000
  10.500   1.2173   0.05050   0.04646  -0.0418   0.0071   1.0000
