  
       XFOIL         Version 6.99
  
 Calculated polar for: HQ 3.0/14 AIRFOIL                               
  
 1 1 Reynolds number fixed          Mach number fixed         
  
 xtrf =   1.000 (top)        1.000 (bottom)  
 Mach =   0.000     Re =     0.400 e 6     Ncrit =   9.000
  
   alpha    CL        CD       CDp       CM     Top_Xtr  Bot_Xtr
  ------ -------- --------- --------- -------- -------- --------
   0.000   0.4094   0.00882   0.00333  -0.0876   0.7269   0.6971
   0.500   0.4641   0.00884   0.00334  -0.0872   0.7127   0.7138
   1.000   0.5192   0.00886   0.00336  -0.0869   0.6987   0.7276
   1.500   0.5740   0.00888   0.00338  -0.0865   0.6837   0.7402
   2.000   0.6280   0.00892   0.00339  -0.0860   0.6660   0.7533
   2.500   0.6811   0.00896   0.00346  -0.0854   0.6466   0.7674
   3.000   0.7336   0.00903   0.00356  -0.0846   0.6255   0.7823
   3.500   0.7852   0.00913   0.00366  -0.0837   0.6026   0.7985
   4.000   0.8349   0.00927   0.00381  -0.0825   0.5745   0.8164
   4.500   0.8825   0.00947   0.00401  -0.0808   0.5405   0.8367
   5.000   0.9261   0.00974   0.00426  -0.0785   0.4997   0.8624
   6.000   1.0215   0.01077   0.00514  -0.0762   0.4024   1.0000
   6.500   1.0610   0.01163   0.00577  -0.0738   0.3534   1.0000
   7.000   1.0973   0.01256   0.00649  -0.0708   0.3117   1.0000
   7.500   1.1313   0.01347   0.00727  -0.0674   0.2796   1.0000
   8.000   1.1611   0.01443   0.00811  -0.0632   0.2530   1.0000
   8.500   1.1922   0.01539   0.00900  -0.0596   0.2263   1.0000
   9.000   1.2226   0.01643   0.01000  -0.0560   0.2031   1.0000
   9.500   1.2507   0.01766   0.01118  -0.0525   0.1822   1.0000
  10.000   1.2781   0.01900   0.01249  -0.0491   0.1630   1.0000
  10.500   1.3051   0.02046   0.01393  -0.0460   0.1430   1.0000
  11.000   1.3289   0.02219   0.01563  -0.0428   0.1246   1.0000
  11.500   1.3526   0.02405   0.01750  -0.0399   0.1086   1.0000
  12.000   1.3744   0.02615   0.01963  -0.0371   0.0937   1.0000
  12.500   1.3929   0.02859   0.02210  -0.0344   0.0794   1.0000
  13.000   1.4084   0.03139   0.02493  -0.0319   0.0670   1.0000
  13.500   1.4216   0.03454   0.02813  -0.0296   0.0569   1.0000
  14.000   1.4324   0.03808   0.03174  -0.0277   0.0492   1.0000
  14.500   1.4408   0.04205   0.03580  -0.0261   0.0423   1.0000
  15.000   1.4507   0.04614   0.04003  -0.0251   0.0369   1.0000
  15.500   1.4550   0.05105   0.04507  -0.0245   0.0315   1.0000
  16.000   1.4540   0.05692   0.05105  -0.0244   0.0241   1.0000
  16.500   1.4424   0.06452   0.05875  -0.0253   0.0166   1.0000
  17.000   1.4289   0.07299   0.06739  -0.0271   0.0132   1.0000
  17.500   1.4125   0.08248   0.07712  -0.0299   0.0113   1.0000
  18.000   1.3875   0.09393   0.08881  -0.0342   0.0100   1.0000
  18.500   1.3654   0.10553   0.10069  -0.0391   0.0095   1.0000
  19.000   1.3406   0.11807   0.11351  -0.0451   0.0092   1.0000
  19.500   1.3147   0.13126   0.12696  -0.0520   0.0088   1.0000
  20.000   1.2897   0.14458   0.14052  -0.0594   0.0086   1.0000
