  
       XFOIL         Version 6.99
  
 Calculated polar for: HQ 3.0/13 AIRFOIL                               
  
 1 1 Reynolds number fixed          Mach number fixed         
  
 xtrf =   1.000 (top)        1.000 (bottom)  
 Mach =   0.000     Re =     0.400 e 6     Ncrit =   9.000
  
   alpha    CL        CD       CDp       CM     Top_Xtr  Bot_Xtr
  ------ -------- --------- --------- -------- -------- --------
   0.000   0.4125   0.00853   0.00315  -0.0890   0.7414   0.7002
   0.500   0.4677   0.00853   0.00312  -0.0887   0.7271   0.7168
   1.000   0.5229   0.00852   0.00311  -0.0884   0.7131   0.7307
   1.500   0.5774   0.00851   0.00311  -0.0880   0.6965   0.7465
   2.000   0.6312   0.00851   0.00310  -0.0874   0.6767   0.7635
   2.500   0.6843   0.00856   0.00317  -0.0867   0.6573   0.7820
   3.000   0.7364   0.00861   0.00329  -0.0858   0.6346   0.8034
   3.500   0.7871   0.00868   0.00341  -0.0847   0.6086   0.8279
   4.000   0.8351   0.00876   0.00354  -0.0830   0.5761   0.8593
   4.500   0.8802   0.00884   0.00371  -0.0806   0.5376   0.9178
   5.000   0.9405   0.00932   0.00403  -0.0821   0.4847   1.0000
   5.500   0.9849   0.01003   0.00450  -0.0803   0.4327   1.0000
   6.000   1.0271   0.01084   0.00508  -0.0782   0.3798   1.0000
   6.500   1.0669   0.01175   0.00575  -0.0757   0.3283   1.0000
   7.000   1.1048   0.01273   0.00652  -0.0730   0.2859   1.0000
   7.500   1.1428   0.01364   0.00733  -0.0703   0.2517   1.0000
   8.000   1.1775   0.01457   0.00814  -0.0671   0.2190   1.0000
   8.500   1.2088   0.01555   0.00903  -0.0633   0.1922   1.0000
   9.000   1.2379   0.01668   0.01008  -0.0595   0.1691   1.0000
   9.500   1.2684   0.01780   0.01118  -0.0561   0.1461   1.0000
  10.000   1.2964   0.01912   0.01245  -0.0526   0.1251   1.0000
  10.500   1.3233   0.02059   0.01391  -0.0493   0.1055   1.0000
  11.000   1.3466   0.02236   0.01565  -0.0459   0.0874   1.0000
  11.500   1.3687   0.02433   0.01762  -0.0427   0.0705   1.0000
  12.000   1.3864   0.02673   0.02000  -0.0395   0.0554   1.0000
  12.500   1.4047   0.02921   0.02255  -0.0368   0.0463   1.0000
  13.000   1.4190   0.03216   0.02554  -0.0342   0.0360   1.0000
  13.500   1.4313   0.03545   0.02891  -0.0318   0.0283   1.0000
  14.000   1.4347   0.03976   0.03328  -0.0297   0.0176   1.0000
  14.500   1.4317   0.04507   0.03868  -0.0280   0.0119   1.0000
  15.000   1.4280   0.05092   0.04473  -0.0271   0.0094   1.0000
  15.500   1.4202   0.05780   0.05184  -0.0273   0.0085   1.0000
  16.000   1.4133   0.06513   0.05944  -0.0284   0.0084   1.0000
  16.500   1.4001   0.07393   0.06853  -0.0306   0.0080   1.0000
  17.000   1.3815   0.08426   0.07913  -0.0342   0.0078   1.0000
  17.500   1.3589   0.09591   0.09108  -0.0390   0.0074   1.0000
  18.000   1.3335   0.10871   0.10416  -0.0449   0.0074   1.0000
  18.500   1.3077   0.12208   0.11780  -0.0516   0.0072   1.0000
  19.000   1.2824   0.13577   0.13174  -0.0590   0.0072   1.0000
  19.500   1.2629   0.14845   0.14465  -0.0662   0.0071   1.0000
  20.000   1.2468   0.16068   0.15705  -0.0736   0.0069   1.0000
