  
       XFOIL         Version 6.99
  
 Calculated polar for: HQ 3.5/14 AIRFOIL                               
  
 1 1 Reynolds number fixed          Mach number fixed         
  
 xtrf =   1.000 (top)        1.000 (bottom)  
 Mach =   0.000     Re =     0.400 e 6     Ncrit =   9.000
  
   alpha    CL        CD       CDp       CM     Top_Xtr  Bot_Xtr
  ------ -------- --------- --------- -------- -------- --------
   0.000   0.4804   0.00887   0.00330  -0.1031   0.7212   0.6667
   0.500   0.5364   0.00895   0.00337  -0.1030   0.7106   0.6844
   1.000   0.5926   0.00902   0.00339  -0.1030   0.6995   0.6991
   1.500   0.6470   0.00904   0.00343  -0.1025   0.6845   0.7150
   2.000   0.7007   0.00907   0.00347  -0.1019   0.6671   0.7320
   2.500   0.7533   0.00910   0.00355  -0.1012   0.6475   0.7498
   3.000   0.8054   0.00915   0.00364  -0.1004   0.6249   0.7662
   3.500   0.8559   0.00926   0.00376  -0.0992   0.5970   0.7848
   4.000   0.9039   0.00945   0.00391  -0.0977   0.5596   0.8037
   4.500   0.9472   0.00983   0.00417  -0.0953   0.5088   0.8229
   5.000   0.9880   0.01035   0.00458  -0.0926   0.4673   0.8474
   5.500   1.0265   0.01081   0.00505  -0.0894   0.4350   0.8865
   6.000   1.0767   0.01132   0.00557  -0.0889   0.4006   1.0000
   6.500   1.1196   0.01197   0.00610  -0.0870   0.3566   1.0000
   7.000   1.1521   0.01293   0.00682  -0.0834   0.3173   1.0000
   7.500   1.1800   0.01399   0.00772  -0.0790   0.2901   1.0000
   8.000   1.2134   0.01490   0.00861  -0.0756   0.2647   1.0000
   8.500   1.2439   0.01595   0.00958  -0.0721   0.2341   1.0000
   9.000   1.2718   0.01719   0.01071  -0.0684   0.2034   1.0000
   9.500   1.2966   0.01870   0.01212  -0.0645   0.1845   1.0000
  10.000   1.3220   0.02028   0.01370  -0.0611   0.1711   1.0000
  10.500   1.3488   0.02188   0.01534  -0.0581   0.1587   1.0000
  11.000   1.3760   0.02352   0.01706  -0.0555   0.1472   1.0000
  11.500   1.4009   0.02539   0.01900  -0.0528   0.1372   1.0000
  12.000   1.4255   0.02735   0.02101  -0.0504   0.1248   1.0000
  12.500   1.4510   0.02934   0.02308  -0.0483   0.1109   1.0000
  13.000   1.4722   0.03175   0.02553  -0.0462   0.0911   1.0000
  13.500   1.4780   0.03558   0.02922  -0.0435   0.0631   1.0000
  14.000   1.4770   0.04032   0.03390  -0.0410   0.0458   1.0000
  14.500   1.4763   0.04541   0.03908  -0.0392   0.0373   1.0000
  15.000   1.4695   0.05154   0.04534  -0.0380   0.0306   1.0000
  15.500   1.4595   0.05857   0.05254  -0.0377   0.0249   1.0000
  16.000   1.4511   0.06598   0.06014  -0.0384   0.0207   1.0000
  16.500   1.4365   0.07481   0.06921  -0.0401   0.0183   1.0000
  17.000   1.4227   0.08420   0.07881  -0.0428   0.0168   1.0000
  17.500   1.3958   0.09618   0.09102  -0.0471   0.0158   1.0000
  18.000   1.3795   0.10688   0.10198  -0.0514   0.0149   1.0000
  18.500   1.3613   0.11818   0.11352  -0.0565   0.0144   1.0000
  19.000   1.3445   0.12956   0.12511  -0.0621   0.0136   1.0000
  19.500   1.3298   0.14059   0.13630  -0.0679   0.0131   1.0000
  20.000   1.3194   0.15071   0.14655  -0.0735   0.0125   1.0000
