  
       XFOIL         Version 6.99
  
 Calculated polar for: HQ 3.5/12 AIRFOIL                               
  
 1 1 Reynolds number fixed          Mach number fixed         
  
 xtrf =   1.000 (top)        1.000 (bottom)  
 Mach =   0.000     Re =     0.400 e 6     Ncrit =   9.000
  
   alpha    CL        CD       CDp       CM     Top_Xtr  Bot_Xtr
  ------ -------- --------- --------- -------- -------- --------
   0.000   0.4763   0.00822   0.00306  -0.1028   0.7511   0.7429
   0.500   0.5311   0.00822   0.00300  -0.1024   0.7354   0.7574
   1.000   0.5856   0.00823   0.00298  -0.1020   0.7190   0.7722
   1.500   0.6398   0.00825   0.00299  -0.1016   0.7025   0.7876
   2.000   0.6934   0.00829   0.00303  -0.1010   0.6851   0.8043
   2.500   0.7460   0.00833   0.00309  -0.1003   0.6646   0.8232
   3.000   0.7974   0.00837   0.00317  -0.0993   0.6416   0.8455
   3.500   0.8461   0.00839   0.00327  -0.0977   0.6134   0.8769
   4.000   0.9040   0.00841   0.00337  -0.0982   0.5745   1.0000
   4.500   0.9525   0.00892   0.00365  -0.0971   0.5186   1.0000
   5.000   0.9948   0.00976   0.00412  -0.0949   0.4449   1.0000
   5.500   1.0343   0.01079   0.00479  -0.0924   0.3731   1.0000
   6.000   1.0748   0.01178   0.00550  -0.0901   0.3211   1.0000
   6.500   1.1159   0.01269   0.00626  -0.0879   0.2905   1.0000
   7.000   1.1587   0.01347   0.00701  -0.0859   0.2693   1.0000
   7.500   1.1995   0.01429   0.00781  -0.0837   0.2500   1.0000
   8.000   1.2382   0.01505   0.00858  -0.0812   0.2305   1.0000
   8.500   1.2755   0.01577   0.00934  -0.0783   0.2090   1.0000
   9.000   1.3101   0.01663   0.01018  -0.0752   0.1838   1.0000
   9.500   1.3400   0.01779   0.01124  -0.0717   0.1509   1.0000
  10.000   1.3641   0.01938   0.01270  -0.0677   0.1155   1.0000
  10.500   1.3830   0.02142   0.01456  -0.0634   0.0814   1.0000
  11.000   1.3950   0.02410   0.01703  -0.0587   0.0443   1.0000
  11.500   1.3927   0.02809   0.02081  -0.0532   0.0136   1.0000
  12.000   1.4031   0.03136   0.02427  -0.0495   0.0104   1.0000
  12.500   1.4120   0.03493   0.02807  -0.0464   0.0092   1.0000
  13.000   1.4079   0.04000   0.03339  -0.0434   0.0083   1.0000
  13.500   1.4046   0.04540   0.03905  -0.0414   0.0080   1.0000
  14.000   1.4022   0.05120   0.04511  -0.0405   0.0076   1.0000
  14.500   1.3922   0.05846   0.05264  -0.0404   0.0075   1.0000
  15.000   1.3852   0.06601   0.06043  -0.0415   0.0070   1.0000
  15.500   1.3719   0.07507   0.06975  -0.0438   0.0067   1.0000
  16.000   1.3549   0.08540   0.08034  -0.0471   0.0066   1.0000
  16.500   1.3387   0.09615   0.09137  -0.0512   0.0065   1.0000
  17.000   1.3230   0.10721   0.10266  -0.0559   0.0064   1.0000
  17.500   1.3095   0.11812   0.11379  -0.0609   0.0063   1.0000
  18.000   1.2987   0.12871   0.12459  -0.0660   0.0062   1.0000
  18.500   1.2899   0.13898   0.13509  -0.0713   0.0062   1.0000
  19.000   1.2819   0.14930   0.14561  -0.0770   0.0061   1.0000
  19.500   1.2730   0.16009   0.15664  -0.0834   0.0061   1.0000
  20.000   1.2620   0.17169   0.16849  -0.0907   0.0061   1.0000
