  
       XFOIL         Version 6.99
  
 Calculated polar for: HQ 3.5/13 AIRFOIL                               
  
 1 1 Reynolds number fixed          Mach number fixed         
  
 xtrf =   1.000 (top)        1.000 (bottom)  
 Mach =   0.000     Re =     0.400 e 6     Ncrit =   9.000
  
   alpha    CL        CD       CDp       CM     Top_Xtr  Bot_Xtr
  ------ -------- --------- --------- -------- -------- --------
   0.000   0.4761   0.00860   0.00327  -0.1021   0.7348   0.7249
   0.500   0.5309   0.00861   0.00322  -0.1017   0.7197   0.7388
   1.000   0.5858   0.00864   0.00321  -0.1014   0.7048   0.7521
   1.500   0.6401   0.00868   0.00323  -0.1011   0.6890   0.7657
   2.000   0.6938   0.00872   0.00328  -0.1006   0.6721   0.7799
   2.500   0.7468   0.00878   0.00336  -0.0999   0.6535   0.7949
   3.000   0.7987   0.00885   0.00344  -0.0991   0.6318   0.8109
   3.500   0.8492   0.00892   0.00356  -0.0980   0.6065   0.8290
   4.000   0.8974   0.00905   0.00370  -0.0964   0.5737   0.8517
   4.500   0.9406   0.00923   0.00388  -0.0938   0.5296   0.8870
   5.000   0.9920   0.00974   0.00424  -0.0934   0.4644   1.0000
   5.500   1.0310   0.01072   0.00485  -0.0909   0.3950   1.0000
   6.000   1.0690   0.01173   0.00556  -0.0882   0.3383   1.0000
   6.500   1.1075   0.01266   0.00629  -0.0855   0.3044   1.0000
   7.000   1.1470   0.01349   0.00705  -0.0831   0.2825   1.0000
   7.500   1.1837   0.01429   0.00781  -0.0801   0.2657   1.0000
   8.000   1.2195   0.01510   0.00864  -0.0770   0.2508   1.0000
   8.500   1.2549   0.01593   0.00950  -0.0740   0.2356   1.0000
   9.000   1.2897   0.01679   0.01040  -0.0711   0.2196   1.0000
   9.500   1.3223   0.01777   0.01139  -0.0680   0.2017   1.0000
  10.000   1.3549   0.01881   0.01246  -0.0652   0.1799   1.0000
  10.500   1.3821   0.02021   0.01381  -0.0620   0.1531   1.0000
  11.000   1.4048   0.02201   0.01554  -0.0585   0.1273   1.0000
  11.500   1.4237   0.02419   0.01765  -0.0549   0.1039   1.0000
  12.000   1.4387   0.02679   0.02018  -0.0514   0.0787   1.0000
  12.500   1.4510   0.02977   0.02310  -0.0481   0.0579   1.0000
  13.000   1.4505   0.03402   0.02720  -0.0445   0.0295   1.0000
  13.500   1.4394   0.03962   0.03278  -0.0412   0.0137   1.0000
  14.000   1.4396   0.04462   0.03798  -0.0392   0.0110   1.0000
  14.500   1.4329   0.05080   0.04439  -0.0380   0.0098   1.0000
  15.000   1.4264   0.05750   0.05136  -0.0379   0.0093   1.0000
  15.500   1.4153   0.06538   0.05953  -0.0387   0.0086   1.0000
  16.000   1.4041   0.07390   0.06830  -0.0406   0.0083   1.0000
  16.500   1.3850   0.08430   0.07898  -0.0438   0.0079   1.0000
  17.000   1.3638   0.09571   0.09065  -0.0482   0.0077   1.0000
  17.500   1.3400   0.10818   0.10338  -0.0536   0.0075   1.0000
  18.000   1.3169   0.12089   0.11632  -0.0596   0.0074   1.0000
  18.500   1.2987   0.13285   0.12848  -0.0656   0.0073   1.0000
  19.000   1.2853   0.14365   0.13944  -0.0713   0.0071   1.0000
  19.500   1.2805   0.15290   0.14884  -0.0763   0.0069   1.0000
  20.000   1.2782   0.16178   0.15792  -0.0815   0.0068   1.0000
