  
       XFOIL         Version 6.99
  
 Calculated polar for: HQ 3.5/9 AIRFOIL                                
  
 1 1 Reynolds number fixed          Mach number fixed         
  
 xtrf =   1.000 (top)        1.000 (bottom)  
 Mach =   0.000     Re =     0.400 e 6     Ncrit =   9.000
  
   alpha    CL        CD       CDp       CM     Top_Xtr  Bot_Xtr
  ------ -------- --------- --------- -------- -------- --------
   0.000   0.4757   0.00705   0.00251  -0.1048   0.8156   0.8171
   0.500   0.5285   0.00693   0.00236  -0.1039   0.7978   0.8470
   1.000   0.5786   0.00673   0.00225  -0.1023   0.7787   0.8947
   1.500   0.6426   0.00664   0.00215  -0.1040   0.7583   1.0000
   2.000   0.6982   0.00679   0.00219  -0.1040   0.7350   1.0000
   2.500   0.7525   0.00696   0.00228  -0.1037   0.7075   1.0000
   3.000   0.8056   0.00720   0.00240  -0.1032   0.6746   1.0000
   3.500   0.8571   0.00753   0.00262  -0.1023   0.6311   1.0000
   4.000   0.9057   0.00802   0.00290  -0.1009   0.5651   1.0000
   4.500   0.9500   0.00888   0.00339  -0.0989   0.4715   1.0000
   5.000   0.9919   0.01004   0.00408  -0.0967   0.3726   1.0000
   5.500   1.0336   0.01129   0.00486  -0.0947   0.2863   1.0000
   6.000   1.0794   0.01219   0.00564  -0.0933   0.2451   1.0000
   6.500   1.1252   0.01306   0.00635  -0.0920   0.1933   1.0000
   7.000   1.1586   0.01515   0.00769  -0.0890   0.0726   1.0000
   7.500   1.1889   0.01768   0.00992  -0.0851   0.0097   1.0000
   8.000   1.2264   0.01933   0.01183  -0.0821   0.0080   1.0000
   8.500   1.2561   0.02150   0.01427  -0.0781   0.0075   1.0000
   9.000   1.2727   0.02418   0.01720  -0.0722   0.0069   1.0000
   9.500   1.2783   0.02803   0.02133  -0.0654   0.0062   1.0000
  10.000   1.2952   0.03143   0.02503  -0.0606   0.0060   1.0000
  10.500   1.3100   0.03591   0.02991  -0.0562   0.0059   1.0000
  11.000   1.3180   0.04167   0.03615  -0.0517   0.0060   1.0000
  11.500   1.3143   0.05018   0.04518  -0.0475   0.0064   1.0000
  12.000   1.3134   0.05423   0.04957  -0.0443   0.0068   1.0000
  14.000   1.0472   0.09947   0.09676  -0.0516   0.0071   1.0000
  14.500   1.0040   0.11420   0.11185  -0.0612   0.0073   1.0000
  15.000   0.9620   0.13061   0.12857  -0.0723   0.0075   1.0000
  15.500   0.9134   0.15088   0.14912  -0.0856   0.0079   1.0000
  16.000   0.8545   0.17916   0.17743  -0.0998   0.0093   1.0000
