  
       XFOIL         Version 6.99
  
 Calculated polar for: HQ 3.5/18 AIRFOIL                               
  
 1 1 Reynolds number fixed          Mach number fixed         
  
 xtrf =   1.000 (top)        1.000 (bottom)  
 Mach =   0.000     Re =     0.400 e 6     Ncrit =   9.000
  
   alpha    CL        CD       CDp       CM     Top_Xtr  Bot_Xtr
  ------ -------- --------- --------- -------- -------- --------
   0.000   0.4724   0.01020   0.00433  -0.0995   0.6797   0.6283
   0.500   0.5293   0.01025   0.00431  -0.0997   0.6706   0.6396
   1.000   0.5837   0.01028   0.00438  -0.0993   0.6598   0.6487
   1.500   0.6397   0.01031   0.00437  -0.0993   0.6490   0.6588
   2.000   0.6928   0.01034   0.00442  -0.0987   0.6360   0.6703
   2.500   0.7443   0.01036   0.00448  -0.0978   0.6196   0.6832
   3.000   0.7950   0.01041   0.00453  -0.0968   0.6013   0.6956
   3.500   0.8438   0.01053   0.00461  -0.0954   0.5801   0.7086
   4.000   0.8886   0.01067   0.00478  -0.0933   0.5528   0.7220
   4.500   0.9310   0.01094   0.00501  -0.0908   0.5248   0.7362
   5.000   0.9679   0.01135   0.00531  -0.0874   0.4934   0.7499
   5.500   1.0013   0.01185   0.00571  -0.0833   0.4676   0.7635
   6.500   1.0591   0.01301   0.00683  -0.0740   0.4220   0.7911
   7.000   1.0871   0.01369   0.00753  -0.0695   0.3971   0.8066
   7.500   1.1117   0.01446   0.00832  -0.0647   0.3672   0.8246
   8.000   1.1284   0.01556   0.00937  -0.0591   0.3359   0.8487
   9.000   1.1901   0.01803   0.01195  -0.0543   0.2993   1.0000
   9.500   1.2184   0.01949   0.01337  -0.0517   0.2847   1.0000
  10.000   1.2451   0.02107   0.01492  -0.0491   0.2688   1.0000
  10.500   1.2706   0.02276   0.01661  -0.0465   0.2517   1.0000
  11.000   1.2943   0.02465   0.01849  -0.0439   0.2323   1.0000
  11.500   1.3142   0.02689   0.02069  -0.0413   0.2125   1.0000
  12.000   1.3311   0.02947   0.02319  -0.0388   0.1958   1.0000
  12.500   1.3494   0.03207   0.02579  -0.0366   0.1839   1.0000
  13.000   1.3657   0.03493   0.02864  -0.0344   0.1751   1.0000
  13.500   1.3865   0.03757   0.03135  -0.0328   0.1674   1.0000
  14.000   1.4035   0.04058   0.03438  -0.0312   0.1604   1.0000
  14.500   1.4248   0.04336   0.03730  -0.0301   0.1545   1.0000
  15.000   1.4388   0.04680   0.04071  -0.0287   0.1473   1.0000
  15.500   1.4587   0.04996   0.04408  -0.0281   0.1421   1.0000
  16.000   1.4731   0.05368   0.04788  -0.0274   0.1364   1.0000
  16.500   1.4864   0.05765   0.05198  -0.0270   0.1303   1.0000
  17.000   1.4988   0.06191   0.05638  -0.0271   0.1242   1.0000
  17.500   1.5059   0.06681   0.06137  -0.0272   0.1185   1.0000
  18.000   1.5154   0.07176   0.06651  -0.0278   0.1121   1.0000
  18.500   1.5166   0.07781   0.07267  -0.0288   0.1054   1.0000
  19.000   1.5167   0.08428   0.07928  -0.0303   0.0978   1.0000
  19.500   1.5137   0.09131   0.08647  -0.0322   0.0895   1.0000
  20.000   1.5033   0.09955   0.09485  -0.0348   0.0804   1.0000
