  
       XFOIL         Version 6.99
  
 Calculated polar for: HQ 3.5/10 AIRFOIL                               
  
 1 1 Reynolds number fixed          Mach number fixed         
  
 xtrf =   1.000 (top)        1.000 (bottom)  
 Mach =   0.000     Re =     0.400 e 6     Ncrit =   9.000
  
   alpha    CL        CD       CDp       CM     Top_Xtr  Bot_Xtr
  ------ -------- --------- --------- -------- -------- --------
   0.000   0.4764   0.00746   0.00267  -0.1042   0.7930   0.7885
   0.500   0.5300   0.00739   0.00257  -0.1035   0.7747   0.8089
   1.000   0.5834   0.00735   0.00252  -0.1028   0.7567   0.8332
   1.500   0.6354   0.00727   0.00247  -0.1018   0.7383   0.8635
   2.000   0.6886   0.00707   0.00244  -0.1009   0.7170   0.9367
   2.500   0.7508   0.00720   0.00247  -0.1024   0.6925   1.0000
   3.000   0.8049   0.00742   0.00260  -0.1022   0.6634   1.0000
   3.500   0.8571   0.00771   0.00277  -0.1015   0.6259   1.0000
   4.000   0.9068   0.00812   0.00303  -0.1004   0.5721   1.0000
   4.500   0.9519   0.00884   0.00341  -0.0985   0.4919   1.0000
   5.000   0.9936   0.00990   0.00405  -0.0962   0.4023   1.0000
   5.500   1.0361   0.01096   0.00477  -0.0942   0.3293   1.0000
   6.000   1.0801   0.01191   0.00552  -0.0925   0.2833   1.0000
   6.500   1.1241   0.01282   0.00629  -0.0909   0.2450   1.0000
   7.000   1.1699   0.01356   0.00701  -0.0895   0.2159   1.0000
   7.500   1.2119   0.01455   0.00780  -0.0876   0.1643   1.0000
   8.000   1.2408   0.01658   0.00928  -0.0840   0.0746   1.0000
   8.500   1.2596   0.01936   0.01162  -0.0785   0.0112   1.0000
   9.000   1.2842   0.02128   0.01377  -0.0737   0.0085   1.0000
   9.500   1.3040   0.02343   0.01620  -0.0685   0.0080   1.0000
  10.000   1.3194   0.02591   0.01892  -0.0633   0.0076   1.0000
  10.500   1.3330   0.02863   0.02190  -0.0587   0.0069   1.0000
  11.000   1.3434   0.03182   0.02529  -0.0544   0.0063   1.0000
  11.500   1.3475   0.03587   0.02959  -0.0504   0.0060   1.0000
  12.000   1.3481   0.04070   0.03466  -0.0470   0.0058   1.0000
  12.500   1.3471   0.04623   0.04048  -0.0444   0.0057   1.0000
  13.000   1.3430   0.05270   0.04727  -0.0425   0.0056   1.0000
  13.500   1.3367   0.05984   0.05478  -0.0416   0.0056   1.0000
  14.000   1.3234   0.06842   0.06378  -0.0420   0.0057   1.0000
  14.500   1.2998   0.07954   0.07542  -0.0445   0.0060   1.0000
  15.000   1.2622   0.09445   0.09089  -0.0503   0.0063   1.0000
  15.500   1.2241   0.11121   0.10810  -0.0594   0.0066   1.0000
  16.000   1.1884   0.12936   0.12661  -0.0706   0.0067   1.0000
  16.500   1.1546   0.14889   0.14644  -0.0832   0.0069   1.0000
  17.000   1.1210   0.17040   0.16819  -0.0970   0.0071   1.0000
  17.500   1.0770   0.19984   0.19774  -0.1138   0.0077   1.0000
