  
       XFOIL         Version 6.99
  
 Calculated polar for: HQ 3.5/8 AIRFOIL                                
  
 1 1 Reynolds number fixed          Mach number fixed         
  
 xtrf =   1.000 (top)        1.000 (bottom)  
 Mach =   0.000     Re =     0.400 e 6     Ncrit =   9.000
  
   alpha    CL        CD       CDp       CM     Top_Xtr  Bot_Xtr
  ------ -------- --------- --------- -------- -------- --------
   0.000   0.4718   0.00652   0.00228  -0.1046   0.8396   0.8711
   0.500   0.5326   0.00625   0.00206  -0.1054   0.8205   1.0000
   1.000   0.5890   0.00634   0.00199  -0.1055   0.8016   1.0000
   1.500   0.6442   0.00644   0.00199  -0.1054   0.7805   1.0000
   2.000   0.6987   0.00658   0.00202  -0.1051   0.7566   1.0000
   2.500   0.7524   0.00675   0.00214  -0.1046   0.7276   1.0000
   3.000   0.8051   0.00699   0.00227  -0.1038   0.6919   1.0000
   3.500   0.8561   0.00733   0.00247  -0.1028   0.6400   1.0000
   4.000   0.9041   0.00791   0.00282  -0.1012   0.5622   1.0000
   4.500   0.9457   0.00907   0.00338  -0.0988   0.4351   1.0000
   5.000   0.9862   0.01053   0.00418  -0.0966   0.3057   1.0000
   5.500   1.0327   0.01148   0.00498  -0.0953   0.2515   1.0000
   6.000   1.0735   0.01307   0.00593  -0.0934   0.1291   1.0000
   6.500   1.1043   0.01613   0.00831  -0.0895   0.0085   1.0000
   7.000   1.1455   0.01789   0.01044  -0.0869   0.0078   1.0000
   7.500   1.1783   0.02048   0.01335  -0.0830   0.0076   1.0000
   8.000   1.2061   0.02400   0.01717  -0.0785   0.0078   1.0000
   8.500   1.2411   0.02645   0.01986  -0.0755   0.0064   1.0000
   9.000   1.2724   0.03114   0.02498  -0.0719   0.0062   1.0000
   9.500   1.2922   0.03941   0.03405  -0.0669   0.0072   1.0000
