  
       XFOIL         Version 6.99
  
 Calculated polar for: NACA 3404                                       
  
 1 1 Reynolds number fixed          Mach number fixed         
  
 xtrf =   1.000 (top)        1.000 (bottom)  
 Mach =   0.000     Re =     0.400 e 6     Ncrit =   9.000
  
   alpha    CL        CD       CDp       CM     Top_Xtr  Bot_Xtr
  ------ -------- --------- --------- -------- -------- --------
   0.000   0.3547   0.00548   0.00156  -0.0836   0.9567   1.0000
   0.500   0.4130   0.00543   0.00143  -0.0838   0.9351   1.0000
   1.000   0.4668   0.00541   0.00136  -0.0829   0.9080   1.0000
   1.500   0.5188   0.00547   0.00136  -0.0815   0.8753   1.0000
   2.000   0.5704   0.00562   0.00147  -0.0802   0.8344   1.0000
   2.500   0.6187   0.00599   0.00166  -0.0779   0.7449   1.0000
   3.000   0.6584   0.00766   0.00201  -0.0744   0.4532   1.0000
   4.000   0.7396   0.01553   0.00838  -0.0690   0.0131   1.0000
   4.500   0.7928   0.01852   0.01171  -0.0666   0.0183   1.0000
