  
       XFOIL         Version 6.99
  
 Calculated polar for: NACA 5408                                       
  
 1 1 Reynolds number fixed          Mach number fixed         
  
 xtrf =   1.000 (top)        1.000 (bottom)  
 Mach =   0.000     Re =     0.400 e 6     Ncrit =   9.000
  
   alpha    CL        CD       CDp       CM     Top_Xtr  Bot_Xtr
  ------ -------- --------- --------- -------- -------- --------
   0.000   0.5793   0.00654   0.00212  -0.1299   0.7653   1.0000
   0.500   0.6337   0.00674   0.00204  -0.1294   0.7374   1.0000
   1.000   0.6876   0.00698   0.00204  -0.1288   0.7080   1.0000
   1.500   0.7411   0.00726   0.00211  -0.1283   0.6780   1.0000
   2.000   0.7945   0.00757   0.00225  -0.1277   0.6490   1.0000
   2.500   0.8477   0.00792   0.00244  -0.1272   0.6223   1.0000
   3.000   0.9007   0.00830   0.00270  -0.1268   0.5987   1.0000
   3.500   0.9540   0.00865   0.00301  -0.1263   0.5771   1.0000
   4.000   1.0069   0.00906   0.00337  -0.1259   0.5582   1.0000
   4.500   1.0597   0.00946   0.00380  -0.1254   0.5405   1.0000
   5.000   1.1093   0.00985   0.00414  -0.1243   0.5039   1.0000
   5.500   1.1580   0.01033   0.00457  -0.1231   0.4647   1.0000
   6.000   1.2063   0.01088   0.00508  -0.1218   0.4234   1.0000
   6.500   1.2468   0.01202   0.00582  -0.1194   0.3202   1.0000
   7.000   1.2574   0.01618   0.00841  -0.1129   0.0660   1.0000
   7.500   1.2882   0.01829   0.01042  -0.1089   0.0335   1.0000
   8.000   1.3155   0.02037   0.01263  -0.1044   0.0256   1.0000
   8.500   1.3424   0.02204   0.01447  -0.0998   0.0219   1.0000
   9.000   1.3491   0.02505   0.01763  -0.0926   0.0193   1.0000
   9.500   1.3655   0.02767   0.02047  -0.0872   0.0177   1.0000
  10.000   1.3842   0.03027   0.02326  -0.0828   0.0159   1.0000
  10.500   1.4001   0.03340   0.02653  -0.0785   0.0147   1.0000
  11.000   1.4225   0.03908   0.03244  -0.0742   0.0135   1.0000
  11.500   1.4397   0.04276   0.03650  -0.0702   0.0131   1.0000
  12.000   1.4494   0.04711   0.04129  -0.0661   0.0123   1.0000
  12.500   1.4502   0.05258   0.04721  -0.0621   0.0117   1.0000
  13.000   1.4369   0.06003   0.05518  -0.0583   0.0116   1.0000
  13.500   1.4095   0.06930   0.06498  -0.0558   0.0117   1.0000
  14.000   1.3718   0.08029   0.07647  -0.0556   0.0118   1.0000
  14.500   1.3292   0.09302   0.08963  -0.0585   0.0121   1.0000
  15.000   1.2862   0.10763   0.10462  -0.0646   0.0124   1.0000
  15.500   1.2437   0.12432   0.12163  -0.0738   0.0126   1.0000
  16.000   1.2020   0.14363   0.14121  -0.0860   0.0130   1.0000
