  
       XFOIL         Version 6.99
  
 Calculated polar for: NACA 6624                                       
  
 1 1 Reynolds number fixed          Mach number fixed         
  
 xtrf =   1.000 (top)        1.000 (bottom)  
 Mach =   0.000     Re =     0.400 e 6     Ncrit =   9.000
  
   alpha    CL        CD       CDp       CM     Top_Xtr  Bot_Xtr
  ------ -------- --------- --------- -------- -------- --------
   0.000   0.7065   0.01268   0.00635  -0.1798   0.7191   0.3851
   0.500   0.7521   0.01275   0.00645  -0.1778   0.7033   0.4056
   1.000   0.7960   0.01291   0.00662  -0.1755   0.6856   0.4262
   1.500   0.8381   0.01317   0.00686  -0.1730   0.6660   0.4473
   2.000   0.8782   0.01356   0.00721  -0.1702   0.6455   0.4690
   2.500   0.9185   0.01404   0.00763  -0.1675   0.6249   0.4912
   3.000   0.9582   0.01461   0.00816  -0.1648   0.6053   0.5143
   3.500   0.9989   0.01522   0.00875  -0.1623   0.5872   0.5380
   4.000   1.0388   0.01590   0.00942  -0.1598   0.5703   0.5614
   4.500   1.0794   0.01662   0.01010  -0.1575   0.5542   0.5843
   5.000   1.1168   0.01742   0.01090  -0.1547   0.5385   0.6065
   5.500   1.1529   0.01829   0.01181  -0.1519   0.5234   0.6286
   6.000   1.1900   0.01918   0.01271  -0.1493   0.5091   0.6506
   6.500   1.2272   0.02010   0.01359  -0.1467   0.4948   0.6733
   7.000   1.2604   0.02116   0.01475  -0.1438   0.4808   0.6974
   7.500   1.2949   0.02224   0.01592  -0.1411   0.4673   0.7250
   8.500   1.3499   0.02408   0.01827  -0.1330   0.4407   1.0000
   9.000   1.3832   0.02555   0.01969  -0.1307   0.4277   1.0000
   9.500   1.4150   0.02710   0.02112  -0.1282   0.4145   1.0000
  10.000   1.4441   0.02886   0.02288  -0.1255   0.4014   1.0000
  10.500   1.4736   0.03064   0.02465  -0.1230   0.3888   1.0000
  11.000   1.4998   0.03264   0.02657  -0.1202   0.3760   1.0000
  11.500   1.5256   0.03477   0.02871  -0.1175   0.3632   1.0000
  12.000   1.5502   0.03703   0.03098  -0.1148   0.3508   1.0000
  12.500   1.5717   0.03953   0.03344  -0.1120   0.3385   1.0000
  13.000   1.5926   0.04219   0.03611  -0.1093   0.3260   1.0000
  13.500   1.6122   0.04502   0.03898  -0.1067   0.3139   1.0000
  14.000   1.6283   0.04816   0.04212  -0.1039   0.3021   1.0000
  14.500   1.6421   0.05160   0.04555  -0.1012   0.2899   1.0000
  15.000   1.6570   0.05507   0.04909  -0.0989   0.2783   1.0000
  15.500   1.6678   0.05892   0.05297  -0.0964   0.2670   1.0000
  16.000   1.6737   0.06329   0.05730  -0.0939   0.2554   1.0000
  16.500   1.6820   0.06769   0.06181  -0.0919   0.2443   1.0000
  17.000   1.6869   0.07239   0.06657  -0.0900   0.2337   1.0000
  17.500   1.6875   0.07761   0.07179  -0.0882   0.2231   1.0000
  18.000   1.6884   0.08296   0.07722  -0.0868   0.2127   1.0000
  18.500   1.6888   0.08839   0.08273  -0.0856   0.2027   1.0000
  19.000   1.6860   0.09421   0.08858  -0.0846   0.1933   1.0000
  19.500   1.6821   0.10026   0.09466  -0.0841   0.1838   1.0000
  20.000   1.6807   0.10609   0.10060  -0.0839   0.1748   1.0000
