  
       XFOIL         Version 6.99
  
 Calculated polar for: NACA 0158                                       
  
 1 1 Reynolds number fixed          Mach number fixed         
  
 xtrf =   1.000 (top)        1.000 (bottom)  
 Mach =   0.000     Re =     0.400 e 6     Ncrit =   9.000
  
   alpha    CL        CD       CDp       CM     Top_Xtr  Bot_Xtr
  ------ -------- --------- --------- -------- -------- --------
   0.000  -0.0000   0.04010   0.03193   0.0000   0.4166   0.4166
   0.500  -0.0054   0.04066   0.03264   0.0054   0.4122   0.4214
   1.000  -0.0403   0.04108   0.03312   0.0146   0.4075   0.4257
   1.500  -0.0655   0.04107   0.03305   0.0227   0.4032   0.4304
   2.000  -0.0654   0.04063   0.03245   0.0277   0.3989   0.4352
   2.500  -0.0840   0.04163   0.03361   0.0345   0.3945   0.4403
   3.000  -0.1225   0.04254   0.03458   0.0442   0.3898   0.4448
   3.500  -0.1400   0.04279   0.03476   0.0515   0.3857   0.4497
   4.000  -0.1267   0.04220   0.03400   0.0553   0.3818   0.4551
   4.500  -0.1732   0.04426   0.03626   0.0653   0.3771   0.4601
   5.000  -0.2134   0.04564   0.03769   0.0752   0.3722   0.4649
   5.500  -0.2227   0.04588   0.03783   0.0820   0.3685   0.4702
   6.000  -0.2108   0.04519   0.03699   0.0871   0.3650   0.4759
   6.500  -0.3070   0.04960   0.04165   0.1024   0.3587   0.4803
   7.000  -0.3034   0.05074   0.04280   0.1060   0.3544   0.4863
   7.500  -0.2619   0.05041   0.04234   0.1056   0.3514   0.4928
   8.500  -0.3206   0.05837   0.05058   0.1155   0.3392   0.5041
   9.000  -0.2612   0.05756   0.04969   0.1127   0.3370   0.5120
  10.000  -0.3223   0.06784   0.06017   0.1201   0.3235   0.5231
  10.500  -0.2506   0.06635   0.05868   0.1160   0.3222   0.5328
