  
       XFOIL         Version 6.99
  
 Calculated polar for: NACA 6620                                       
  
 1 1 Reynolds number fixed          Mach number fixed         
  
 xtrf =   1.000 (top)        1.000 (bottom)  
 Mach =   0.000     Re =     0.400 e 6     Ncrit =   9.000
  
   alpha    CL        CD       CDp       CM     Top_Xtr  Bot_Xtr
  ------ -------- --------- --------- -------- -------- --------
   0.000   0.7920   0.01189   0.00594  -0.2001   0.7732   0.4115
   0.500   0.8516   0.01166   0.00573  -0.2007   0.7624   0.4402
   1.000   0.8936   0.01165   0.00579  -0.1976   0.7483   0.4666
   1.500   0.9371   0.01162   0.00578  -0.1949   0.7332   0.4938
   2.000   0.9781   0.01165   0.00587  -0.1917   0.7157   0.5212
   2.500   1.0197   0.01184   0.00608  -0.1887   0.6952   0.5488
   3.000   1.0607   0.01214   0.00636  -0.1857   0.6721   0.5759
   3.500   1.0996   0.01259   0.00675  -0.1823   0.6469   0.6020
   4.000   1.1344   0.01320   0.00731  -0.1783   0.6201   0.6270
   4.500   1.1712   0.01387   0.00789  -0.1749   0.5956   0.6520
   5.000   1.2084   0.01461   0.00856  -0.1716   0.5733   0.6775
   5.500   1.2446   0.01537   0.00932  -0.1683   0.5526   0.7046
   6.000   1.2791   0.01618   0.01018  -0.1648   0.5328   0.7376
   6.500   1.3123   0.01696   0.01111  -0.1612   0.5137   0.7918
   7.000   1.3360   0.01756   0.01195  -0.1556   0.4954   1.0000
   7.500   1.3691   0.01872   0.01303  -0.1523   0.4767   1.0000
   8.000   1.4009   0.01996   0.01420  -0.1490   0.4582   1.0000
   8.500   1.4311   0.02134   0.01553  -0.1456   0.4399   1.0000
   9.000   1.4607   0.02280   0.01694  -0.1422   0.4216   1.0000
   9.500   1.4888   0.02441   0.01850  -0.1387   0.4033   1.0000
  10.000   1.5154   0.02617   0.02022  -0.1352   0.3851   1.0000
  10.500   1.5410   0.02806   0.02208  -0.1318   0.3669   1.0000
  11.000   1.5650   0.03013   0.02411  -0.1283   0.3487   1.0000
  11.500   1.5870   0.03240   0.02636  -0.1248   0.3306   1.0000
  12.000   1.6076   0.03486   0.02880  -0.1213   0.3125   1.0000
  12.500   1.6266   0.03752   0.03144  -0.1179   0.2945   1.0000
  13.000   1.6434   0.04046   0.03436  -0.1145   0.2769   1.0000
  13.500   1.6577   0.04368   0.03757  -0.1111   0.2595   1.0000
  14.000   1.6696   0.04721   0.04110  -0.1078   0.2424   1.0000
  14.500   1.6794   0.05107   0.04495  -0.1047   0.2259   1.0000
  15.000   1.6866   0.05526   0.04915  -0.1016   0.2101   1.0000
  15.500   1.6913   0.05984   0.05375  -0.0988   0.1950   1.0000
  16.000   1.6938   0.06480   0.05874  -0.0962   0.1808   1.0000
  16.500   1.6939   0.07014   0.06411  -0.0939   0.1676   1.0000
  17.000   1.6918   0.07586   0.06988  -0.0920   0.1555   1.0000
  17.500   1.6872   0.08204   0.07610  -0.0904   0.1444   1.0000
  18.000   1.6805   0.08853   0.08266  -0.0892   0.1344   1.0000
  18.500   1.6718   0.09541   0.08957  -0.0884   0.1252   1.0000
  19.000   1.6680   0.10180   0.09606  -0.0881   0.1168   1.0000
  19.500   1.6629   0.10838   0.10274  -0.0881   0.1092   1.0000
  20.000   1.6564   0.11523   0.10967  -0.0887   0.1025   1.0000
