  
       XFOIL         Version 6.99
  
 Calculated polar for: NACA 2813                                       
  
 1 1 Reynolds number fixed          Mach number fixed         
  
 xtrf =   1.000 (top)        1.000 (bottom)  
 Mach =   0.000     Re =     0.400 e 6     Ncrit =   9.000
  
   alpha    CL        CD       CDp       CM     Top_Xtr  Bot_Xtr
  ------ -------- --------- --------- -------- -------- --------
   0.000   0.3151   0.00938   0.00490  -0.0918   0.9177   0.6846
   0.500   0.3794   0.00863   0.00430  -0.0924   0.9009   0.7197
   1.000   0.4281   0.00814   0.00391  -0.0897   0.8572   0.7499
   1.500   0.5386   0.00768   0.00308  -0.1001   0.7663   0.7763
   2.000   0.5892   0.00832   0.00334  -0.0983   0.6861   0.7983
   2.500   0.6345   0.00885   0.00363  -0.0956   0.6198   0.8179
   3.000   0.6795   0.00934   0.00391  -0.0929   0.5581   0.8367
   3.500   0.7242   0.00983   0.00420  -0.0902   0.4982   0.8552
   4.000   0.7689   0.01032   0.00450  -0.0877   0.4395   0.8739
   4.500   0.8131   0.01084   0.00484  -0.0851   0.3804   0.8931
   5.000   0.8546   0.01138   0.00519  -0.0820   0.3229   0.9137
   6.000   0.9413   0.01263   0.00605  -0.0771   0.2104   1.0000
   6.500   0.9920   0.01367   0.00680  -0.0767   0.1600   1.0000
   7.000   1.0407   0.01471   0.00764  -0.0759   0.1216   1.0000
   7.500   1.0871   0.01580   0.00858  -0.0746   0.0960   1.0000
   8.000   1.1306   0.01696   0.00965  -0.0726   0.0791   1.0000
   8.500   1.1715   0.01809   0.01078  -0.0702   0.0677   1.0000
   9.000   1.2082   0.01935   0.01203  -0.0670   0.0594   1.0000
   9.500   1.2406   0.02086   0.01353  -0.0632   0.0530   1.0000
  10.000   1.2772   0.02202   0.01480  -0.0601   0.0483   1.0000
  10.500   1.3047   0.02376   0.01662  -0.0559   0.0444   1.0000
  11.000   1.3336   0.02535   0.01830  -0.0520   0.0412   1.0000
  11.500   1.3547   0.02756   0.02061  -0.0473   0.0386   1.0000
  12.000   1.3792   0.02946   0.02266  -0.0434   0.0361   1.0000
  12.500   1.3935   0.03230   0.02554  -0.0388   0.0342   1.0000
  13.000   1.4107   0.03495   0.02844  -0.0348   0.0327   1.0000
  13.500   1.4251   0.03790   0.03157  -0.0313   0.0312   1.0000
  14.000   1.4354   0.04139   0.03516  -0.0281   0.0299   1.0000
  14.500   1.4390   0.04594   0.03991  -0.0253   0.0288   1.0000
  15.000   1.4418   0.05082   0.04509  -0.0236   0.0278   1.0000
  15.500   1.4410   0.05647   0.05100  -0.0229   0.0269   1.0000
  16.000   1.4384   0.06274   0.05749  -0.0232   0.0262   1.0000
  16.500   1.4340   0.06954   0.06444  -0.0240   0.0256   1.0000
  17.000   1.4209   0.07769   0.07279  -0.0251   0.0249   1.0000
  17.500   1.3982   0.08830   0.08378  -0.0295   0.0245   1.0000
  18.000   1.3701   0.10048   0.09634  -0.0354   0.0242   1.0000
  18.500   1.3365   0.11449   0.11073  -0.0431   0.0238   1.0000
  19.000   1.2939   0.13132   0.12794  -0.0535   0.0237   1.0000
  19.500   1.2094   0.16011   0.15729  -0.0733   0.0240   1.0000
