  
       XFOIL         Version 6.99
  
 Calculated polar for: NACA 1042                                       
  
 1 1 Reynolds number fixed          Mach number fixed         
  
 xtrf =   1.000 (top)        1.000 (bottom)  
 Mach =   0.000     Re =     0.400 e 6     Ncrit =   9.000
  
   alpha    CL        CD       CDp       CM     Top_Xtr  Bot_Xtr
  ------ -------- --------- --------- -------- -------- --------
   0.000  -0.0261   0.02028   0.01240   0.0165   0.4461   0.4607
   0.500  -0.0510   0.02042   0.01251   0.0302   0.4393   0.4670
   1.000  -0.0395   0.02049   0.01261   0.0370   0.4318   0.4761
   1.500  -0.0229   0.02070   0.01282   0.0428   0.4247   0.4848
   2.000  -0.0086   0.02098   0.01312   0.0487   0.4175   0.4933
   2.500   0.0192   0.02119   0.01334   0.0523   0.4101   0.5032
   3.000   0.0439   0.02165   0.01380   0.0561   0.4033   0.5125
   3.500   0.0686   0.02205   0.01429   0.0597   0.3963   0.5230
   4.000   0.1060   0.02242   0.01461   0.0612   0.3892   0.5340
   4.500   0.1309   0.02314   0.01540   0.0643   0.3828   0.5443
   5.000   0.1594   0.02378   0.01614   0.0667   0.3761   0.5563
   5.500   0.2047   0.02425   0.01646   0.0668   0.3691   0.5672
   6.000   0.2242   0.02531   0.01777   0.0698   0.3632   0.5806
   6.500   0.2540   0.02633   0.01879   0.0714   0.3569   0.5930
   7.000   0.2970   0.02688   0.01935   0.0714   0.3506   0.6073
   7.500   0.3182   0.02842   0.02102   0.0735   0.3446   0.6208
   8.000   0.3486   0.02962   0.02231   0.0744   0.3388   0.6358
   8.500   0.3892   0.03050   0.02317   0.0743   0.3329   0.6511
   9.000   0.4077   0.03248   0.02536   0.0759   0.3271   0.6672
   9.500   0.4406   0.03387   0.02676   0.0761   0.3215   0.6835
  10.000   0.4753   0.03516   0.02816   0.0762   0.3160   0.7023
  10.500   0.4932   0.03760   0.03073   0.0772   0.3103   0.7197
  11.000   0.5253   0.03916   0.03237   0.0772   0.3051   0.7403
  11.500   0.5516   0.04117   0.03451   0.0775   0.2998   0.7605
  12.000   0.5675   0.04404   0.03752   0.0781   0.2943   0.7805
  12.500   0.6016   0.04556   0.03913   0.0778   0.2894   0.8044
  13.000   0.6181   0.04845   0.04221   0.0784   0.2842   0.8265
  13.500   0.6304   0.05177   0.04567   0.0790   0.2789   0.8492
  14.000   0.6693   0.05295   0.04685   0.0786   0.2745   0.8732
  14.500   0.6638   0.05766   0.05182   0.0802   0.2691   0.8954
  15.000   0.6762   0.06106   0.05533   0.0809   0.2641   0.9164
  15.500   0.7233   0.06151   0.05566   0.0803   0.2602   0.9368
  16.000   0.6954   0.06921   0.06365   0.0812   0.2540   0.9521
  16.500   0.7291   0.07213   0.06653   0.0789   0.2496   0.9648
  17.000   0.7611   0.07657   0.07100   0.0744   0.2448   0.9715
  17.500   0.7671   0.08367   0.07823   0.0701   0.2388   0.9773
  18.000   0.8318   0.08492   0.07935   0.0650   0.2355   0.9842
  18.500   0.7920   0.09650   0.09123   0.0614   0.2279   0.9868
  19.000   0.8566   0.09857   0.09320   0.0544   0.2246   0.9892
  20.000   0.8731   0.11313   0.10796   0.0435   0.2135   0.9953
