  
       XFOIL         Version 6.99
  
 Calculated polar for: NACA 3606                                       
  
 1 1 Reynolds number fixed          Mach number fixed         
  
 xtrf =   1.000 (top)        1.000 (bottom)  
 Mach =   0.000     Re =     0.400 e 6     Ncrit =   9.000
  
   alpha    CL        CD       CDp       CM     Top_Xtr  Bot_Xtr
  ------ -------- --------- --------- -------- -------- --------
   0.000   0.4148   0.00733   0.00343  -0.1120   0.9503   1.0000
   0.500   0.4833   0.00714   0.00321  -0.1145   0.9436   1.0000
   1.000   0.5418   0.00699   0.00309  -0.1146   0.9320   1.0000
   1.500   0.5991   0.00674   0.00289  -0.1142   0.9179   1.0000
   2.000   0.6495   0.00626   0.00244  -0.1114   0.8819   1.0000
   2.500   0.7001   0.00614   0.00224  -0.1091   0.8241   1.0000
   3.000   0.7409   0.00703   0.00228  -0.1049   0.6169   1.0000
   3.500   0.7667   0.01037   0.00350  -0.1000   0.1729   1.0000
   4.500   0.8542   0.01439   0.00697  -0.0954   0.0223   1.0000
   5.000   0.9001   0.01629   0.00904  -0.0932   0.0182   1.0000
   5.500   0.9458   0.01952   0.01246  -0.0908   0.0164   1.0000
