  
       XFOIL         Version 6.99
  
 Calculated polar for: NACA 5712                                       
  
 1 1 Reynolds number fixed          Mach number fixed         
  
 xtrf =   1.000 (top)        1.000 (bottom)  
 Mach =   0.000     Re =     0.400 e 6     Ncrit =   9.000
  
   alpha    CL        CD       CDp       CM     Top_Xtr  Bot_Xtr
  ------ -------- --------- --------- -------- -------- --------
   0.000   0.6218   0.01805   0.01307  -0.1824   0.8920   0.5509
   0.500   0.7030   0.01719   0.01237  -0.1869   0.8900   0.5978
   1.000   0.7522   0.01699   0.01231  -0.1851   0.8792   0.6341
   1.500   0.8328   0.01579   0.01124  -0.1890   0.8763   0.6686
   2.000   0.9164   0.01422   0.00978  -0.1934   0.8740   0.6971
   2.500   0.9724   0.01331   0.00897  -0.1924   0.8622   0.7205
   3.500   1.0744   0.01152   0.00741  -0.1880   0.8207   0.7611
   4.000   1.1520   0.01000   0.00558  -0.1907   0.7156   0.7810
   4.500   1.1807   0.01127   0.00613  -0.1847   0.6033   0.8001
   5.000   1.2037   0.01245   0.00703  -0.1780   0.5307   0.8206
   5.500   1.2285   0.01361   0.00795  -0.1719   0.4610   0.8462
   6.000   1.2482   0.01453   0.00876  -0.1648   0.3929   1.0000
   6.500   1.2785   0.01605   0.00986  -0.1605   0.3143   1.0000
   7.000   1.3089   0.01771   0.01107  -0.1564   0.2344   1.0000
   7.500   1.3387   0.01948   0.01241  -0.1523   0.1627   1.0000
   8.000   1.3683   0.02128   0.01388  -0.1482   0.1109   1.0000
   8.500   1.3990   0.02297   0.01541  -0.1443   0.0814   1.0000
   9.000   1.4279   0.02475   0.01711  -0.1401   0.0649   1.0000
   9.500   1.4549   0.02663   0.01898  -0.1358   0.0545   1.0000
  10.000   1.4826   0.02846   0.02089  -0.1317   0.0478   1.0000
  10.500   1.5051   0.03064   0.02316  -0.1269   0.0426   1.0000
  11.000   1.5214   0.03334   0.02591  -0.1217   0.0385   1.0000
  11.500   1.5438   0.03559   0.02833  -0.1174   0.0356   1.0000
  12.000   1.5585   0.03850   0.03130  -0.1125   0.0329   1.0000
  12.500   1.5719   0.04164   0.03464  -0.1078   0.0308   1.0000
  13.000   1.5861   0.04482   0.03798  -0.1035   0.0290   1.0000
  13.500   1.5929   0.04883   0.04208  -0.0990   0.0275   1.0000
  14.000   1.6003   0.05300   0.04648  -0.0950   0.0262   1.0000
  14.500   1.6088   0.05721   0.05092  -0.0917   0.0248   1.0000
  15.000   1.6141   0.06192   0.05580  -0.0889   0.0237   1.0000
  15.500   1.6142   0.06741   0.06142  -0.0860   0.0228   1.0000
  16.000   1.6121   0.07356   0.06787  -0.0840   0.0221   1.0000
  16.500   1.6076   0.08030   0.07494  -0.0829   0.0214   1.0000
  17.000   1.6007   0.08770   0.08263  -0.0828   0.0207   1.0000
  17.500   1.5918   0.09569   0.09089  -0.0838   0.0201   1.0000
  18.000   1.5825   0.10395   0.09938  -0.0856   0.0196   1.0000
  18.500   1.5737   0.11216   0.10775  -0.0878   0.0190   1.0000
  19.000   1.5521   0.12283   0.11872  -0.0916   0.0186   1.0000
  19.500   1.5258   0.13579   0.13209  -0.0989   0.0184   1.0000
  20.000   1.4945   0.15074   0.14745  -0.1086   0.0183   1.0000
