  
       XFOIL         Version 6.99
  
 Calculated polar for: NACA 6512                                       
  
 1 1 Reynolds number fixed          Mach number fixed         
  
 xtrf =   1.000 (top)        1.000 (bottom)  
 Mach =   0.000     Re =     0.400 e 6     Ncrit =   9.000
  
   alpha    CL        CD       CDp       CM     Top_Xtr  Bot_Xtr
  ------ -------- --------- --------- -------- -------- --------
   0.000   0.7667   0.00931   0.00337  -0.1837   0.7710   0.4309
   0.500   0.8220   0.00918   0.00343  -0.1836   0.7580   0.5205
   1.000   0.8749   0.00891   0.00359  -0.1831   0.7444   0.6728
   0.000   0.7667   0.00931   0.00337  -0.1837   0.7710   0.4309
   0.500   0.8220   0.00918   0.00343  -0.1836   0.7580   0.5205
   1.000   0.8749   0.00891   0.00359  -0.1831   0.7444   0.6728
