  
       XFOIL         Version 6.99
  
 Calculated polar for: NACA 1342                                       
  
 1 1 Reynolds number fixed          Mach number fixed         
  
 xtrf =   1.000 (top)        1.000 (bottom)  
 Mach =   0.000     Re =     0.400 e 6     Ncrit =   9.000
  
   alpha    CL        CD       CDp       CM     Top_Xtr  Bot_Xtr
  ------ -------- --------- --------- -------- -------- --------
   0.000  -0.1001   0.02039   0.01249   0.0196   0.4464   0.4590
   0.500  -0.0832   0.02048   0.01256   0.0255   0.4390   0.4678
   1.000  -0.0749   0.02065   0.01282   0.0328   0.4324   0.4764
   1.500  -0.0562   0.02094   0.01301   0.0381   0.4256   0.4845
   2.000  -0.0207   0.02108   0.01318   0.0404   0.4186   0.4948
   2.500  -0.0007   0.02149   0.01367   0.0451   0.4125   0.5043
   3.000   0.0291   0.02187   0.01401   0.0480   0.4063   0.5135
   3.500   0.0731   0.02210   0.01424   0.0487   0.3998   0.5248
   4.000   0.0956   0.02281   0.01501   0.0523   0.3944   0.5344
   4.500   0.1276   0.02332   0.01560   0.0544   0.3887   0.5458
   5.000   0.1721   0.02372   0.01594   0.0547   0.3829   0.5577
   5.500   0.2011   0.02456   0.01686   0.0568   0.3777   0.5689
   6.000   0.2319   0.02538   0.01781   0.0586   0.3723   0.5818
   6.500   0.2700   0.02613   0.01850   0.0593   0.3671   0.5938
   7.000   0.3102   0.02681   0.01929   0.0597   0.3619   0.6091
   7.500   0.3361   0.02817   0.02070   0.0613   0.3569   0.6211
   8.000   0.3675   0.02926   0.02194   0.0623   0.3518   0.6375
   9.000   0.4365   0.03162   0.02444   0.0633   0.3422   0.6689
   9.500   0.4626   0.03333   0.02622   0.0641   0.3370   0.6848
  10.000   0.5037   0.03423   0.02719   0.0639   0.3325   0.7040
  10.500   0.5322   0.03597   0.02904   0.0644   0.3279   0.7225
  11.000   0.5487   0.03845   0.03170   0.0656   0.3227   0.7424
  11.500   0.5803   0.04008   0.03343   0.0657   0.3182   0.7634
  12.000   0.6222   0.04112   0.03450   0.0651   0.3139   0.7854
  12.500   0.6190   0.04517   0.03882   0.0672   0.3085   0.8079
  13.000   0.6471   0.04717   0.04095   0.0673   0.3041   0.8319
  13.500   0.7007   0.04733   0.04107   0.0663   0.3001   0.8561
  14.000   0.6729   0.05350   0.04759   0.0692   0.2943   0.8792
  14.500   0.6918   0.05621   0.05038   0.0700   0.2899   0.9034
  15.000   0.7435   0.05641   0.05051   0.0695   0.2864   0.9250
  15.500   0.6988   0.06480   0.05923   0.0722   0.2796   0.9430
  16.000   0.7281   0.06723   0.06163   0.0717   0.2756   0.9610
  16.500   0.7704   0.07060   0.06499   0.0673   0.2712   0.9687
  17.000   0.7530   0.07955   0.07415   0.0644   0.2641   0.9754
  17.500   0.8250   0.08055   0.07502   0.0586   0.2612   0.9819
  18.500   0.8394   0.09471   0.08939   0.0497   0.2494   0.9886
  20.000   0.9444   0.10854   0.10325   0.0328   0.2359   0.9981
