  
       XFOIL         Version 6.99
  
 Calculated polar for: NACA 6522                                       
  
 1 1 Reynolds number fixed          Mach number fixed         
  
 xtrf =   1.000 (top)        1.000 (bottom)  
 Mach =   0.000     Re =     0.400 e 6     Ncrit =   9.000
  
   alpha    CL        CD       CDp       CM     Top_Xtr  Bot_Xtr
  ------ -------- --------- --------- -------- -------- --------
   0.000   0.7090   0.01227   0.00532  -0.1652   0.6493   0.3609
   0.500   0.7598   0.01236   0.00543  -0.1643   0.6383   0.3881
   1.000   0.8093   0.01242   0.00553  -0.1631   0.6268   0.4180
   1.500   0.8534   0.01253   0.00574  -0.1609   0.6153   0.4496
   2.000   0.9049   0.01269   0.00589  -0.1601   0.6040   0.4859
   2.500   0.9406   0.01283   0.00619  -0.1563   0.5924   0.5238
   3.000   0.9885   0.01306   0.00651  -0.1550   0.5812   0.5715
   3.500   1.0315   0.01329   0.00690  -0.1527   0.5695   0.6316
   4.000   1.0738   0.01349   0.00740  -0.1504   0.5581   0.7222
   4.500   1.1117   0.01340   0.00774  -0.1465   0.5468   1.0000
   5.000   1.1492   0.01397   0.00829  -0.1436   0.5351   1.0000
   5.500   1.1926   0.01456   0.00876  -0.1418   0.5238   1.0000
   6.000   1.2305   0.01524   0.00939  -0.1391   0.5119   1.0000
   6.500   1.2690   0.01598   0.01010  -0.1367   0.5003   1.0000
   7.000   1.3097   0.01675   0.01074  -0.1347   0.4885   1.0000
   7.500   1.3416   0.01771   0.01175  -0.1314   0.4767   1.0000
   8.000   1.3773   0.01869   0.01269  -0.1288   0.4652   1.0000
   8.500   1.4103   0.01979   0.01373  -0.1259   0.4532   1.0000
   9.000   1.4406   0.02105   0.01504  -0.1229   0.4412   1.0000
   9.500   1.4716   0.02236   0.01630  -0.1200   0.4294   1.0000
  10.000   1.4988   0.02391   0.01784  -0.1169   0.4171   1.0000
  10.500   1.5252   0.02560   0.01958  -0.1138   0.4050   1.0000
  11.000   1.5510   0.02741   0.02136  -0.1109   0.3929   1.0000
  11.500   1.5736   0.02949   0.02343  -0.1077   0.3803   1.0000
  12.000   1.5949   0.03180   0.02581  -0.1048   0.3678   1.0000
  12.500   1.6144   0.03431   0.02833  -0.1018   0.3554   1.0000
  13.000   1.6314   0.03705   0.03104  -0.0988   0.3427   1.0000
  13.500   1.6466   0.04014   0.03420  -0.0960   0.3299   1.0000
  14.000   1.6607   0.04341   0.03753  -0.0933   0.3172   1.0000
  14.500   1.6719   0.04699   0.04113  -0.0906   0.3046   1.0000
  15.000   1.6798   0.05093   0.04506  -0.0880   0.2918   1.0000
  15.500   1.6866   0.05519   0.04938  -0.0856   0.2789   1.0000
  16.000   1.6919   0.05968   0.05395  -0.0835   0.2662   1.0000
  16.500   1.6946   0.06450   0.05882  -0.0814   0.2538   1.0000
  17.000   1.6946   0.06971   0.06406  -0.0796   0.2415   1.0000
  17.500   1.6914   0.07531   0.06968  -0.0779   0.2292   1.0000
  18.000   1.6872   0.08119   0.07560  -0.0765   0.2170   1.0000
  18.500   1.6833   0.08716   0.08166  -0.0755   0.2053   1.0000
  19.000   1.6775   0.09337   0.08794  -0.0748   0.1938   1.0000
  19.500   1.6709   0.09977   0.09439  -0.0744   0.1829   1.0000
  20.000   1.6633   0.10636   0.10101  -0.0743   0.1723   1.0000
