  
       XFOIL         Version 6.99
  
 Calculated polar for: NACA 6026                                       
  
 1 1 Reynolds number fixed          Mach number fixed         
  
 xtrf =   1.000 (top)        1.000 (bottom)  
 Mach =   0.000     Re =     0.400 e 6     Ncrit =   9.000
  
   alpha    CL        CD       CDp       CM     Top_Xtr  Bot_Xtr
  ------ -------- --------- --------- -------- -------- --------
   0.000   0.4690   0.01266   0.00591  -0.0161   0.4465   0.6664
   0.500   0.5089   0.01283   0.00616  -0.0132   0.4324   0.6939
   1.000   0.5497   0.01312   0.00649  -0.0106   0.4183   0.7233
   1.500   0.5913   0.01342   0.00690  -0.0083   0.4042   0.7548
   2.000   0.6335   0.01379   0.00737  -0.0061   0.3907   0.7878
   2.500   0.6733   0.01426   0.00790  -0.0037   0.3775   0.8218
   3.000   0.7113   0.01477   0.00852  -0.0009   0.3644   0.8573
   3.500   0.7485   0.01535   0.00919   0.0020   0.3519   0.8934
   4.000   0.7831   0.01616   0.01001   0.0052   0.3397   0.9270
   4.500   0.8240   0.01703   0.01091   0.0068   0.3273   0.9579
   5.000   0.8836   0.01812   0.01199   0.0042   0.3141   0.9764
   5.500   0.9532   0.01943   0.01323  -0.0011   0.3006   0.9860
   6.000   1.0188   0.02087   0.01459  -0.0061   0.2872   0.9944
   6.500   1.0706   0.02211   0.01584  -0.0086   0.2754   1.0002
   7.000   1.0669   0.02299   0.01669  -0.0006   0.2672   1.0002
   7.500   1.0758   0.02424   0.01791   0.0047   0.2580   1.0002
   8.000   1.0946   0.02573   0.01941   0.0079   0.2488   1.0002
   8.500   1.1124   0.02771   0.02130   0.0105   0.2394   1.0002
   9.000   1.1368   0.02963   0.02330   0.0119   0.2305   1.0002
   9.500   1.1564   0.03202   0.02567   0.0134   0.2219   1.0002
  10.000   1.1765   0.03460   0.02827   0.0144   0.2133   1.0002
  10.500   1.1957   0.03739   0.03110   0.0151   0.2053   1.0002
  11.000   1.2103   0.04065   0.03432   0.0158   0.1974   1.0002
  11.500   1.2277   0.04391   0.03768   0.0160   0.1899   1.0002
  12.000   1.2391   0.04766   0.04140   0.0163   0.1828   1.0002
  12.500   1.2524   0.05158   0.04543   0.0161   0.1758   1.0002
  13.000   1.2618   0.05577   0.04962   0.0159   0.1694   1.0002
  13.500   1.2703   0.06033   0.05427   0.0153   0.1630   1.0002
  14.000   1.2776   0.06496   0.05894   0.0148   0.1571   1.0002
  14.500   1.2825   0.07005   0.06410   0.0138   0.1513   1.0002
  15.000   1.2871   0.07517   0.06928   0.0128   0.1459   1.0002
  15.500   1.2895   0.08071   0.07489   0.0114   0.1406   1.0002
  16.000   1.2926   0.08612   0.08036   0.0100   0.1356   1.0002
  16.500   1.2932   0.09203   0.08635   0.0082   0.1307   1.0002
  17.000   1.2978   0.09731   0.09166   0.0065   0.1262   1.0002
  17.500   1.2961   0.10364   0.09811   0.0042   0.1217   1.0002
  18.000   1.3019   0.10883   0.10330   0.0020   0.1176   1.0002
  18.500   1.2976   0.11562   0.11024  -0.0008   0.1134   1.0002
  19.000   1.3106   0.11978   0.11434  -0.0031   0.1096   1.0002
  19.500   1.3018   0.12734   0.12210  -0.0066   0.1058   1.0002
  20.000   1.3137   0.13175   0.12647  -0.0094   0.1023   1.0002
   0.000   0.4690   0.01266   0.00591  -0.0161   0.4465   0.6664
   0.500   0.5089   0.01283   0.00616  -0.0132   0.4324   0.6939
   1.000   0.5497   0.01312   0.00649  -0.0106   0.4183   0.7233
   1.500   0.5913   0.01342   0.00690  -0.0083   0.4042   0.7548
   2.000   0.6335   0.01379   0.00737  -0.0061   0.3907   0.7878
   2.500   0.6733   0.01426   0.00790  -0.0037   0.3775   0.8218
   3.000   0.7113   0.01477   0.00852  -0.0009   0.3644   0.8573
   3.500   0.7485   0.01535   0.00919   0.0020   0.3519   0.8934
   4.000   0.7831   0.01616   0.01001   0.0052   0.3397   0.9270
   4.500   0.8240   0.01703   0.01091   0.0068   0.3273   0.9579
   5.000   0.8836   0.01812   0.01199   0.0042   0.3141   0.9764
   5.500   0.9532   0.01943   0.01323  -0.0011   0.3006   0.9860
   6.000   1.0188   0.02087   0.01459  -0.0061   0.2872   0.9944
   6.500   1.0706   0.02211   0.01584  -0.0086   0.2754   1.0002
   7.000   1.0669   0.02299   0.01669  -0.0006   0.2672   1.0002
   7.500   1.0758   0.02424   0.01791   0.0047   0.2580   1.0002
   8.000   1.0946   0.02573   0.01941   0.0079   0.2488   1.0002
   8.500   1.1124   0.02771   0.02130   0.0105   0.2394   1.0002
   9.000   1.1368   0.02963   0.02330   0.0119   0.2305   1.0002
   9.500   1.1564   0.03202   0.02567   0.0134   0.2219   1.0002
  10.000   1.1765   0.03460   0.02827   0.0144   0.2133   1.0002
  10.500   1.1957   0.03739   0.03110   0.0151   0.2053   1.0002
  11.000   1.2103   0.04065   0.03432   0.0158   0.1974   1.0002
  11.500   1.2277   0.04391   0.03768   0.0160   0.1899   1.0002
  12.000   1.2391   0.04766   0.04140   0.0163   0.1828   1.0002
  12.500   1.2524   0.05158   0.04543   0.0161   0.1758   1.0002
  13.000   1.2618   0.05577   0.04962   0.0159   0.1694   1.0002
  13.500   1.2703   0.06033   0.05427   0.0153   0.1630   1.0002
  14.000   1.2776   0.06496   0.05894   0.0148   0.1571   1.0002
  14.500   1.2825   0.07005   0.06410   0.0138   0.1513   1.0002
  15.000   1.2871   0.07517   0.06928   0.0128   0.1459   1.0002
  15.500   1.2895   0.08071   0.07489   0.0114   0.1406   1.0002
  16.000   1.2926   0.08612   0.08036   0.0100   0.1356   1.0002
  16.500   1.2932   0.09203   0.08635   0.0082   0.1307   1.0002
  17.000   1.2978   0.09731   0.09166   0.0065   0.1262   1.0002
  17.500   1.2961   0.10364   0.09811   0.0042   0.1217   1.0002
  18.000   1.3019   0.10883   0.10330   0.0020   0.1176   1.0002
  18.500   1.2976   0.11562   0.11024  -0.0008   0.1134   1.0002
  19.000   1.3106   0.11978   0.11434  -0.0031   0.1096   1.0002
  19.500   1.3018   0.12734   0.12210  -0.0066   0.1058   1.0002
  20.000   1.3137   0.13175   0.12647  -0.0094   0.1023   1.0002
   0.000   0.4690   0.01266   0.00591  -0.0161   0.4465   0.6664
   0.500   0.5089   0.01283   0.00616  -0.0132   0.4324   0.6939
   1.000   0.5497   0.01312   0.00649  -0.0106   0.4183   0.7233
   1.500   0.5913   0.01342   0.00690  -0.0083   0.4042   0.7548
   2.000   0.6335   0.01379   0.00737  -0.0061   0.3907   0.7878
   2.500   0.6733   0.01426   0.00790  -0.0037   0.3775   0.8218
   3.000   0.7113   0.01477   0.00852  -0.0009   0.3644   0.8573
   3.500   0.7485   0.01535   0.00919   0.0020   0.3519   0.8934
   4.000   0.7831   0.01616   0.01001   0.0052   0.3397   0.9270
   4.500   0.8240   0.01703   0.01091   0.0068   0.3273   0.9579
   5.000   0.8836   0.01812   0.01199   0.0042   0.3141   0.9764
   5.500   0.9532   0.01943   0.01323  -0.0011   0.3006   0.9860
   6.000   1.0188   0.02087   0.01459  -0.0061   0.2872   0.9944
   6.500   1.0706   0.02211   0.01584  -0.0086   0.2754   1.0002
   7.000   1.0669   0.02299   0.01669  -0.0006   0.2672   1.0002
   7.500   1.0758   0.02424   0.01791   0.0047   0.2580   1.0002
   8.000   1.0946   0.02573   0.01941   0.0079   0.2488   1.0002
   8.500   1.1124   0.02771   0.02130   0.0105   0.2394   1.0002
   9.000   1.1368   0.02963   0.02330   0.0119   0.2305   1.0002
   9.500   1.1564   0.03202   0.02567   0.0134   0.2219   1.0002
  10.000   1.1765   0.03460   0.02827   0.0144   0.2133   1.0002
  10.500   1.1957   0.03739   0.03110   0.0151   0.2053   1.0002
  11.000   1.2103   0.04065   0.03432   0.0158   0.1974   1.0002
  11.500   1.2277   0.04391   0.03768   0.0160   0.1899   1.0002
  12.000   1.2391   0.04766   0.04140   0.0163   0.1828   1.0002
  12.500   1.2524   0.05158   0.04543   0.0161   0.1758   1.0002
  13.000   1.2618   0.05577   0.04962   0.0159   0.1694   1.0002
  13.500   1.2703   0.06033   0.05427   0.0153   0.1630   1.0002
  14.000   1.2776   0.06496   0.05894   0.0148   0.1571   1.0002
  14.500   1.2825   0.07005   0.06410   0.0138   0.1513   1.0002
  15.000   1.2871   0.07517   0.06928   0.0128   0.1459   1.0002
  15.500   1.2895   0.08071   0.07489   0.0114   0.1406   1.0002
  16.000   1.2926   0.08612   0.08036   0.0100   0.1356   1.0002
  16.500   1.2932   0.09203   0.08635   0.0082   0.1307   1.0002
  17.000   1.2978   0.09731   0.09166   0.0065   0.1262   1.0002
  17.500   1.2961   0.10364   0.09811   0.0042   0.1217   1.0002
  18.000   1.3019   0.10883   0.10330   0.0020   0.1176   1.0002
  18.500   1.2976   0.11562   0.11024  -0.0008   0.1134   1.0002
  19.000   1.3106   0.11978   0.11434  -0.0031   0.1096   1.0002
  19.500   1.3018   0.12734   0.12210  -0.0066   0.1058   1.0002
  20.000   1.3137   0.13175   0.12647  -0.0094   0.1023   1.0002
