  
       XFOIL         Version 6.99
  
 Calculated polar for: NACA 2331                                       
  
 1 1 Reynolds number fixed          Mach number fixed         
  
 xtrf =   1.000 (top)        1.000 (bottom)  
 Mach =   0.000     Re =     0.400 e 6     Ncrit =   9.000
  
   alpha    CL        CD       CDp       CM     Top_Xtr  Bot_Xtr
  ------ -------- --------- --------- -------- -------- --------
   0.000   0.0916   0.01410   0.00679  -0.0134   0.4705   0.5260
   0.500   0.1291   0.01426   0.00689  -0.0101   0.4594   0.5419
   1.000   0.1671   0.01438   0.00706  -0.0069   0.4487   0.5592
   1.500   0.2101   0.01460   0.00727  -0.0048   0.4392   0.5758
   2.000   0.2516   0.01484   0.00751  -0.0024   0.4299   0.5931
   2.500   0.2976   0.01512   0.00780  -0.0010   0.4211   0.6117
   3.000   0.3400   0.01535   0.00813   0.0010   0.4137   0.6302
   3.500   0.3838   0.01570   0.00845   0.0027   0.4061   0.6499
   4.000   0.4305   0.01604   0.00887   0.0039   0.3991   0.6727
   4.500   0.4723   0.01638   0.00935   0.0058   0.3924   0.6966
   5.000   0.5168   0.01679   0.00979   0.0071   0.3859   0.7194
   5.500   0.5634   0.01726   0.01030   0.0080   0.3795   0.7423
   6.000   0.6039   0.01776   0.01093   0.0099   0.3736   0.7675
   6.500   0.6458   0.01830   0.01153   0.0114   0.3676   0.7934
   7.000   0.6920   0.01888   0.01217   0.0124   0.3616   0.8204
   7.500   0.7266   0.01961   0.01307   0.0149   0.3561   0.8489
   8.000   0.7634   0.02035   0.01390   0.0171   0.3505   0.8771
   9.000   0.8342   0.02222   0.01592   0.0220   0.3395   0.9318
   9.500   0.8730   0.02342   0.01716   0.0232   0.3339   0.9549
  10.000   0.9319   0.02443   0.01804   0.0213   0.3275   0.9714
  10.500   0.9892   0.02637   0.02012   0.0170   0.3220   0.9787
  11.000   1.0480   0.02812   0.02187   0.0130   0.3159   0.9873
  11.500   1.1142   0.02958   0.02326   0.0081   0.3098   0.9922
  12.000   1.1655   0.03200   0.02580   0.0039   0.3036   0.9982
  12.500   1.1807   0.03344   0.02721   0.0070   0.2985   1.0000
  13.000   1.1856   0.03457   0.02831   0.0125   0.2936   1.0000
  13.500   1.1818   0.03677   0.03061   0.0178   0.2883   1.0000
  14.000   1.1936   0.03873   0.03254   0.0209   0.2831   1.0000
  14.500   1.2091   0.04099   0.03482   0.0231   0.2777   1.0000
  15.000   1.2169   0.04424   0.03816   0.0249   0.2718   1.0000
  15.500   1.2447   0.04610   0.03992   0.0256   0.2664   1.0000
  16.000   1.2442   0.05059   0.04458   0.0268   0.2605   1.0000
  16.500   1.2583   0.05396   0.04795   0.0272   0.2548   1.0000
  17.000   1.2698   0.05765   0.05169   0.0276   0.2491   1.0000
  17.500   1.2722   0.06242   0.05655   0.0277   0.2431   1.0000
  18.000   1.2918   0.06543   0.05953   0.0276   0.2376   1.0000
  18.500   1.2794   0.07194   0.06621   0.0274   0.2312   1.0000
  19.000   1.3123   0.07363   0.06776   0.0269   0.2261   1.0000
  19.500   1.2806   0.08246   0.07686   0.0262   0.2193   1.0000
  20.000   1.3086   0.08472   0.07902   0.0255   0.2143   1.0000
