  
       XFOIL         Version 6.99
  
 Calculated polar for: NACA 5406                                       
  
 1 1 Reynolds number fixed          Mach number fixed         
  
 xtrf =   1.000 (top)        1.000 (bottom)  
 Mach =   0.000     Re =     0.400 e 6     Ncrit =   9.000
  
   alpha    CL        CD       CDp       CM     Top_Xtr  Bot_Xtr
  ------ -------- --------- --------- -------- -------- --------
   0.000   0.5766   0.00612   0.00190  -0.1311   0.8181   1.0000
   0.500   0.6308   0.00626   0.00177  -0.1305   0.7912   1.0000
   1.000   0.6846   0.00645   0.00174  -0.1299   0.7615   1.0000
   1.500   0.7381   0.00669   0.00180  -0.1293   0.7296   1.0000
   2.000   0.7912   0.00699   0.00191  -0.1287   0.6967   1.0000
   2.500   0.8440   0.00732   0.00214  -0.1281   0.6633   1.0000
   3.000   0.8967   0.00770   0.00240  -0.1275   0.6323   1.0000
   3.500   0.9493   0.00810   0.00275  -0.1270   0.6047   1.0000
   4.000   1.0004   0.00854   0.00315  -0.1261   0.5660   1.0000
   4.500   1.0486   0.00913   0.00355  -0.1247   0.5058   1.0000
   5.000   1.0929   0.01014   0.00418  -0.1227   0.3927   1.0000
   5.500   1.1092   0.01499   0.00702  -0.1170   0.0282   1.0000
   6.000   1.1460   0.01726   0.00954  -0.1136   0.0190   1.0000
   6.500   1.1841   0.01914   0.01160  -0.1105   0.0157   1.0000
   7.000   1.2166   0.02182   0.01450  -0.1064   0.0136   1.0000
   7.500   1.2523   0.02570   0.01861  -0.1026   0.0131   1.0000
   8.500   1.2754   0.02730   0.02133  -0.0881   0.0117   1.0000
