  
       XFOIL         Version 6.99
  
 Calculated polar for: NACA 1240                                       
  
 1 1 Reynolds number fixed          Mach number fixed         
  
 xtrf =   1.000 (top)        1.000 (bottom)  
 Mach =   0.000     Re =     0.400 e 6     Ncrit =   9.000
  
   alpha    CL        CD       CDp       CM     Top_Xtr  Bot_Xtr
  ------ -------- --------- --------- -------- -------- --------
   0.000  -0.0753   0.01893   0.01114   0.0195   0.4516   0.4676
   0.500  -0.0570   0.01906   0.01119   0.0254   0.4428   0.4759
   1.000  -0.0417   0.01917   0.01142   0.0317   0.4347   0.4850
   1.500  -0.0161   0.01943   0.01157   0.0361   0.4261   0.4939
   2.000   0.0092   0.01966   0.01188   0.0403   0.4183   0.5039
   2.500   0.0359   0.01998   0.01223   0.0441   0.4099   0.5143
   3.000   0.0684   0.02043   0.01257   0.0468   0.4016   0.5238
   3.500   0.0961   0.02083   0.01314   0.0501   0.3940   0.5359
   4.000   0.1300   0.02139   0.01359   0.0522   0.3861   0.5469
   4.500   0.1611   0.02196   0.01430   0.0546   0.3788   0.5593
   5.000   0.1919   0.02271   0.01506   0.0568   0.3710   0.5719
   5.500   0.2279   0.02338   0.01573   0.0582   0.3637   0.5852
   6.000   0.2580   0.02433   0.01680   0.0600   0.3568   0.5989
   6.500   0.2930   0.02518   0.01762   0.0612   0.3497   0.6133
   7.000   0.3245   0.02628   0.01883   0.0625   0.3431   0.6284
   7.500   0.3545   0.02751   0.02014   0.0638   0.3366   0.6441
   8.000   0.3956   0.02836   0.02093   0.0640   0.3303   0.6608
   8.500   0.4195   0.03003   0.02282   0.0655   0.3244   0.6783
   9.000   0.4522   0.03142   0.02422   0.0660   0.3187   0.6959
   9.500   0.4911   0.03245   0.02533   0.0662   0.3134   0.7164
  10.000   0.5135   0.03455   0.02761   0.0673   0.3081   0.7363
  11.000   0.5867   0.03712   0.03029   0.0674   0.2985   0.7807
  11.500   0.6033   0.03979   0.03320   0.0686   0.2939   0.8035
  12.000   0.6296   0.04189   0.03541   0.0690   0.2894   0.8273
  12.500   0.6732   0.04273   0.03622   0.0687   0.2854   0.8518
  13.000   0.6866   0.04572   0.03946   0.0701   0.2815   0.8768
  13.500   0.7002   0.04877   0.04268   0.0715   0.2772   0.9007
  14.000   0.7293   0.05074   0.04468   0.0720   0.2737   0.9226
  14.500   0.7726   0.05171   0.04558   0.0718   0.2702   0.9425
  15.000   0.7669   0.05719   0.05129   0.0726   0.2659   0.9600
  15.500   0.8014   0.06089   0.05503   0.0692   0.2620   0.9693
  16.000   0.8642   0.06283   0.05689   0.0636   0.2587   0.9755
  16.500   0.8821   0.06847   0.06267   0.0598   0.2545   0.9818
  17.000   0.8947   0.07463   0.06896   0.0561   0.2500   0.9871
  17.500   0.9545   0.07706   0.07132   0.0498   0.2468   0.9896
  18.000   0.9843   0.08194   0.07626   0.0448   0.2429   0.9926
  18.500   0.9496   0.09314   0.08776   0.0411   0.2368   0.9961
  19.000   1.0184   0.09440   0.08892   0.0351   0.2343   0.9992
  20.000   0.9045   0.11259   0.10745   0.0386   0.2225   1.0000
