  
       XFOIL         Version 6.99
  
 Calculated polar for: NACA 4626                                       
  
 1 1 Reynolds number fixed          Mach number fixed         
  
 xtrf =   1.000 (top)        1.000 (bottom)  
 Mach =   0.000     Re =     0.400 e 6     Ncrit =   9.000
  
   alpha    CL        CD       CDp       CM     Top_Xtr  Bot_Xtr
  ------ -------- --------- --------- -------- -------- --------
   0.000   0.4435   0.01215   0.00544  -0.1131   0.6438   0.4294
   0.500   0.4845   0.01231   0.00556  -0.1102   0.6239   0.4472
   1.000   0.5282   0.01258   0.00575  -0.1079   0.6048   0.4660
   1.500   0.5719   0.01289   0.00603  -0.1057   0.5867   0.4857
   2.000   0.6145   0.01321   0.00639  -0.1033   0.5696   0.5060
   2.500   0.6586   0.01357   0.00677  -0.1013   0.5536   0.5265
   3.000   0.7025   0.01399   0.00717  -0.0993   0.5382   0.5474
   3.500   0.7454   0.01447   0.00760  -0.0972   0.5228   0.5688
   4.000   0.7869   0.01495   0.00816  -0.0949   0.5082   0.5905
   4.500   0.8289   0.01548   0.00871  -0.0928   0.4941   0.6117
   5.000   0.8703   0.01608   0.00928  -0.0907   0.4799   0.6329
   5.500   0.9100   0.01670   0.00997  -0.0884   0.4663   0.6545
   6.000   0.9502   0.01740   0.01068  -0.0863   0.4532   0.6769
   6.500   0.9884   0.01815   0.01145  -0.0839   0.4398   0.7015
   7.000   1.0265   0.01890   0.01233  -0.0816   0.4270   0.7289
   7.500   1.0630   0.01974   0.01326  -0.0792   0.4146   0.7630
   8.000   1.0962   0.02058   0.01432  -0.0762   0.4021   0.8194
   8.500   1.1229   0.02117   0.01522  -0.0717   0.3905   1.0000
   9.000   1.1579   0.02246   0.01637  -0.0697   0.3782   1.0000
   9.500   1.1924   0.02379   0.01770  -0.0678   0.3663   1.0000
  10.000   1.2249   0.02528   0.01914  -0.0657   0.3549   1.0000
  10.500   1.2552   0.02692   0.02070  -0.0635   0.3431   1.0000
  11.000   1.2859   0.02863   0.02245  -0.0615   0.3320   1.0000
  11.500   1.3133   0.03057   0.02433  -0.0593   0.3211   1.0000
  12.000   1.3398   0.03265   0.02640  -0.0571   0.3099   1.0000
  12.500   1.3657   0.03487   0.02865  -0.0551   0.2994   1.0000
  13.000   1.3870   0.03740   0.03110  -0.0528   0.2889   1.0000
  13.500   1.4096   0.04003   0.03381  -0.0510   0.2786   1.0000
  14.000   1.4297   0.04287   0.03666  -0.0491   0.2687   1.0000
  14.500   1.4457   0.04611   0.03988  -0.0471   0.2588   1.0000
  15.000   1.4627   0.04943   0.04327  -0.0455   0.2492   1.0000
  15.500   1.4751   0.05314   0.04697  -0.0437   0.2400   1.0000
  16.000   1.4870   0.05710   0.05100  -0.0424   0.2308   1.0000
  16.500   1.4973   0.06123   0.05518  -0.0411   0.2221   1.0000
  17.000   1.5034   0.06580   0.05973  -0.0398   0.2134   1.0000
  17.500   1.5111   0.07046   0.06452  -0.0391   0.2052   1.0000
  18.000   1.5151   0.07538   0.06944  -0.0382   0.1973   1.0000
  18.500   1.5178   0.08068   0.07483  -0.0378   0.1894   1.0000
  19.000   1.5198   0.08604   0.08026  -0.0376   0.1820   1.0000
  19.500   1.5198   0.09164   0.08586  -0.0376   0.1747   1.0000
  20.000   1.5200   0.09739   0.09175  -0.0380   0.1677   1.0000
