  
       XFOIL         Version 6.99
  
 Calculated polar for: NACA 6428                                       
  
 1 1 Reynolds number fixed          Mach number fixed         
  
 xtrf =   1.000 (top)        1.000 (bottom)  
 Mach =   0.000     Re =     0.400 e 6     Ncrit =   9.000
  
   alpha    CL        CD       CDp       CM     Top_Xtr  Bot_Xtr
  ------ -------- --------- --------- -------- -------- --------
   0.000   0.5120   0.01565   0.00767  -0.1071   0.5134   0.3035
   0.500   0.5609   0.01581   0.00784  -0.1063   0.5065   0.3253
   1.000   0.6150   0.01600   0.00806  -0.1065   0.5003   0.3520
   1.500   0.6582   0.01617   0.00839  -0.1048   0.4944   0.3842
   2.000   0.7052   0.01628   0.00870  -0.1038   0.4885   0.4395
   2.500   0.7636   0.01633   0.00902  -0.1050   0.4823   0.5464
   3.000   0.8014   0.01659   0.00964  -0.1024   0.4773   0.6335
   3.500   0.8442   0.01686   0.01019  -0.1006   0.4718   0.7113
   4.000   0.8909   0.01714   0.01065  -0.0993   0.4665   0.7900
   4.500   0.9322   0.01751   0.01127  -0.0967   0.4612   0.8811
   5.000   0.9791   0.01820   0.01211  -0.0957   0.4560   0.9740
   5.500   1.0378   0.01883   0.01266  -0.0979   0.4503   1.0000
   6.000   1.0948   0.01927   0.01290  -0.0989   0.4447   1.0000
   6.500   1.1183   0.02017   0.01387  -0.0948   0.4401   1.0000
   7.000   1.1531   0.02100   0.01469  -0.0926   0.4346   1.0000
   7.500   1.1964   0.02172   0.01532  -0.0918   0.4296   1.0000
   8.000   1.2385   0.02260   0.01616  -0.0909   0.4244   1.0000
   8.500   1.2649   0.02389   0.01751  -0.0880   0.4190   1.0000
   9.000   1.3013   0.02491   0.01850  -0.0865   0.4137   1.0000
   9.500   1.3509   0.02562   0.01910  -0.0868   0.4083   1.0000
  10.000   1.3656   0.02760   0.02123  -0.0830   0.4030   1.0000
  10.500   1.3949   0.02911   0.02274  -0.0811   0.3973   1.0000
  11.000   1.4451   0.02973   0.02323  -0.0816   0.3920   1.0000
  11.500   1.4504   0.03262   0.02631  -0.0776   0.3862   1.0000
  12.000   1.4757   0.03461   0.02832  -0.0758   0.3805   1.0000
  12.500   1.5166   0.03568   0.02931  -0.0755   0.3751   1.0000
  13.000   1.5190   0.03936   0.03317  -0.0722   0.3686   1.0000
  13.500   1.5456   0.04147   0.03526  -0.0710   0.3628   1.0000
  14.000   1.5634   0.04432   0.03818  -0.0694   0.3567   1.0000
  14.500   1.5719   0.04802   0.04197  -0.0673   0.3499   1.0000
  15.000   1.6142   0.04890   0.04274  -0.0674   0.3444   1.0000
  15.500   1.5959   0.05515   0.04923  -0.0643   0.3369   1.0000
  16.000   1.6255   0.05715   0.05118  -0.0639   0.3310   1.0000
  16.500   1.6106   0.06342   0.05764  -0.0617   0.3233   1.0000
  17.000   1.6331   0.06617   0.06037  -0.0612   0.3171   1.0000
  17.500   1.6179   0.07274   0.06710  -0.0595   0.3091   1.0000
  18.000   1.6368   0.07588   0.07022  -0.0592   0.3028   1.0000
  18.500   1.6167   0.08320   0.07771  -0.0580   0.2944   1.0000
  19.000   1.6408   0.08580   0.08027  -0.0581   0.2883   1.0000
  19.500   1.6095   0.09454   0.08921  -0.0572   0.2791   1.0000
  20.000   1.6476   0.09551   0.09008  -0.0578   0.2738   1.0000
   0.000   0.5120   0.01565   0.00767  -0.1071   0.5134   0.3035
   0.500   0.5609   0.01581   0.00784  -0.1063   0.5065   0.3253
   1.000   0.6150   0.01600   0.00806  -0.1065   0.5003   0.3520
   1.500   0.6582   0.01617   0.00839  -0.1048   0.4944   0.3842
   2.000   0.7052   0.01628   0.00870  -0.1038   0.4885   0.4395
   2.500   0.7636   0.01633   0.00902  -0.1050   0.4823   0.5464
   3.000   0.8014   0.01659   0.00964  -0.1024   0.4773   0.6335
   3.500   0.8442   0.01686   0.01019  -0.1006   0.4718   0.7113
   4.000   0.8909   0.01714   0.01065  -0.0993   0.4665   0.7900
   4.500   0.9322   0.01751   0.01127  -0.0967   0.4612   0.8811
   5.000   0.9791   0.01820   0.01211  -0.0957   0.4560   0.9740
   5.500   1.0378   0.01883   0.01266  -0.0979   0.4503   1.0000
   6.000   1.0948   0.01927   0.01290  -0.0989   0.4447   1.0000
   6.500   1.1183   0.02017   0.01387  -0.0948   0.4401   1.0000
   7.000   1.1531   0.02100   0.01469  -0.0926   0.4346   1.0000
   7.500   1.1964   0.02172   0.01532  -0.0918   0.4296   1.0000
   8.000   1.2385   0.02260   0.01616  -0.0909   0.4244   1.0000
   8.500   1.2649   0.02389   0.01751  -0.0880   0.4190   1.0000
   9.000   1.3013   0.02491   0.01850  -0.0865   0.4137   1.0000
   9.500   1.3509   0.02562   0.01910  -0.0868   0.4083   1.0000
  10.000   1.3656   0.02760   0.02123  -0.0830   0.4030   1.0000
  10.500   1.3949   0.02911   0.02274  -0.0811   0.3973   1.0000
  11.000   1.4451   0.02973   0.02323  -0.0816   0.3920   1.0000
  11.500   1.4504   0.03262   0.02631  -0.0776   0.3862   1.0000
  12.000   1.4757   0.03461   0.02832  -0.0758   0.3805   1.0000
  12.500   1.5166   0.03568   0.02931  -0.0755   0.3751   1.0000
  13.000   1.5190   0.03936   0.03317  -0.0722   0.3686   1.0000
  13.500   1.5456   0.04147   0.03526  -0.0710   0.3628   1.0000
  14.000   1.5634   0.04432   0.03818  -0.0694   0.3567   1.0000
  14.500   1.5719   0.04802   0.04197  -0.0673   0.3499   1.0000
  15.000   1.6142   0.04890   0.04274  -0.0674   0.3444   1.0000
  15.500   1.5959   0.05515   0.04923  -0.0643   0.3369   1.0000
  16.000   1.6255   0.05715   0.05118  -0.0639   0.3310   1.0000
  16.500   1.6106   0.06342   0.05764  -0.0617   0.3233   1.0000
  17.000   1.6331   0.06617   0.06037  -0.0612   0.3171   1.0000
  17.500   1.6179   0.07274   0.06710  -0.0595   0.3091   1.0000
  18.000   1.6368   0.07588   0.07022  -0.0592   0.3028   1.0000
  18.500   1.6167   0.08320   0.07771  -0.0580   0.2944   1.0000
  19.000   1.6408   0.08580   0.08027  -0.0581   0.2883   1.0000
  19.500   1.6095   0.09454   0.08921  -0.0572   0.2791   1.0000
  20.000   1.6476   0.09551   0.09008  -0.0578   0.2738   1.0000
   0.000   0.5120   0.01565   0.00767  -0.1071   0.5134   0.3035
   0.500   0.5609   0.01581   0.00784  -0.1063   0.5065   0.3253
   1.000   0.6150   0.01600   0.00806  -0.1065   0.5003   0.3520
   1.500   0.6582   0.01617   0.00839  -0.1048   0.4944   0.3842
   2.000   0.7052   0.01628   0.00870  -0.1038   0.4885   0.4395
   2.500   0.7636   0.01633   0.00902  -0.1050   0.4823   0.5464
   3.000   0.8014   0.01659   0.00964  -0.1024   0.4773   0.6335
   3.500   0.8442   0.01686   0.01019  -0.1006   0.4718   0.7113
   4.000   0.8909   0.01714   0.01065  -0.0993   0.4665   0.7900
   4.500   0.9322   0.01751   0.01127  -0.0967   0.4612   0.8811
   5.000   0.9791   0.01820   0.01211  -0.0957   0.4560   0.9740
   5.500   1.0378   0.01883   0.01266  -0.0979   0.4503   1.0000
   6.000   1.0948   0.01927   0.01290  -0.0989   0.4447   1.0000
   6.500   1.1183   0.02017   0.01387  -0.0948   0.4401   1.0000
   7.000   1.1531   0.02100   0.01469  -0.0926   0.4346   1.0000
   7.500   1.1964   0.02172   0.01532  -0.0918   0.4296   1.0000
   8.000   1.2385   0.02260   0.01616  -0.0909   0.4244   1.0000
   8.500   1.2649   0.02389   0.01751  -0.0880   0.4190   1.0000
   9.000   1.3013   0.02491   0.01850  -0.0865   0.4137   1.0000
   9.500   1.3509   0.02562   0.01910  -0.0868   0.4083   1.0000
  10.000   1.3656   0.02760   0.02123  -0.0830   0.4030   1.0000
  10.500   1.3949   0.02911   0.02274  -0.0811   0.3973   1.0000
  11.000   1.4451   0.02973   0.02323  -0.0816   0.3920   1.0000
  11.500   1.4504   0.03262   0.02631  -0.0776   0.3862   1.0000
  12.000   1.4757   0.03461   0.02832  -0.0758   0.3805   1.0000
  12.500   1.5166   0.03568   0.02931  -0.0755   0.3751   1.0000
  13.000   1.5190   0.03936   0.03317  -0.0722   0.3686   1.0000
  13.500   1.5456   0.04147   0.03526  -0.0710   0.3628   1.0000
  14.000   1.5634   0.04432   0.03818  -0.0694   0.3567   1.0000
  14.500   1.5719   0.04802   0.04197  -0.0673   0.3499   1.0000
  15.000   1.6142   0.04890   0.04274  -0.0674   0.3444   1.0000
  15.500   1.5959   0.05515   0.04923  -0.0643   0.3369   1.0000
  16.000   1.6255   0.05715   0.05118  -0.0639   0.3310   1.0000
  16.500   1.6106   0.06342   0.05764  -0.0617   0.3233   1.0000
  17.000   1.6331   0.06617   0.06037  -0.0612   0.3171   1.0000
  17.500   1.6179   0.07274   0.06710  -0.0595   0.3091   1.0000
  18.000   1.6368   0.07588   0.07022  -0.0592   0.3028   1.0000
  18.500   1.6167   0.08320   0.07771  -0.0580   0.2944   1.0000
  19.000   1.6408   0.08580   0.08027  -0.0581   0.2883   1.0000
  19.500   1.6095   0.09454   0.08921  -0.0572   0.2791   1.0000
  20.000   1.6476   0.09551   0.09008  -0.0578   0.2738   1.0000
