  
       XFOIL         Version 6.99
  
 Calculated polar for: NACA 2404                                       
  
 1 1 Reynolds number fixed          Mach number fixed         
  
 xtrf =   1.000 (top)        1.000 (bottom)  
 Mach =   0.000     Re =     0.400 e 6     Ncrit =   9.000
  
   alpha    CL        CD       CDp       CM     Top_Xtr  Bot_Xtr
  ------ -------- --------- --------- -------- -------- --------
   0.000   0.2021   0.00536   0.00144  -0.0487   0.9896   1.0000
   0.500   0.2809   0.00536   0.00140  -0.0539   0.9765   1.0000
   1.000   0.3527   0.00530   0.00137  -0.0573   0.9569   1.0000
   1.500   0.4116   0.00526   0.00138  -0.0574   0.9242   1.0000
   2.000   0.4614   0.00532   0.00141  -0.0551   0.8639   1.0000
   2.500   0.5011   0.00630   0.00152  -0.0504   0.6238   1.0000
   3.000   0.5379   0.01027   0.00295  -0.0481   0.0260   1.0000
