  
       XFOIL         Version 6.99
  
 Calculated polar for: NACA 6012                                       
  
 1 1 Reynolds number fixed          Mach number fixed         
  
 xtrf =   1.000 (top)        1.000 (bottom)  
 Mach =   0.000     Re =     0.400 e 6     Ncrit =   9.000
  
   alpha    CL        CD       CDp       CM     Top_Xtr  Bot_Xtr
  ------ -------- --------- --------- -------- -------- --------
   0.000   0.6116   0.00827   0.00300  -0.0498   0.5191   1.0001
   0.500   0.6567   0.00873   0.00323  -0.0478   0.4652   1.0001
   1.000   0.7017   0.00925   0.00353  -0.0460   0.4080   1.0001
   1.500   0.7462   0.00989   0.00391  -0.0441   0.3477   1.0001
   2.000   0.7908   0.01064   0.00439  -0.0424   0.2842   1.0001
   2.500   0.8353   0.01152   0.00498  -0.0409   0.2204   1.0001
   3.000   0.8793   0.01254   0.00569  -0.0394   0.1620   1.0001
   3.500   0.9233   0.01360   0.00653  -0.0380   0.1170   1.0001
   4.000   0.9671   0.01468   0.00747  -0.0365   0.0882   1.0001
   4.500   1.0089   0.01591   0.00859  -0.0348   0.0703   1.0001
   5.000   1.0509   0.01706   0.00976  -0.0332   0.0593   1.0001
   5.500   1.0901   0.01839   0.01111  -0.0313   0.0513   1.0001
   6.000   1.1287   0.01967   0.01243  -0.0294   0.0456   1.0001
   6.500   1.1638   0.02112   0.01400  -0.0270   0.0412   1.0001
   7.000   1.1888   0.02305   0.01593  -0.0233   0.0377   1.0001
   7.500   1.2183   0.02454   0.01762  -0.0203   0.0351   1.0001
   8.000   1.2412   0.02657   0.01969  -0.0170   0.0327   1.0001
   8.500   1.2623   0.02895   0.02227  -0.0139   0.0308   1.0001
   9.000   1.2830   0.03135   0.02483  -0.0114   0.0291   1.0001
   9.500   1.2991   0.03433   0.02788  -0.0090   0.0277   1.0001
  10.000   1.3105   0.03807   0.03187  -0.0067   0.0266   1.0001
  10.500   1.3208   0.04185   0.03593  -0.0054   0.0254   1.0001
  11.000   1.3279   0.04615   0.04043  -0.0047   0.0244   1.0001
  11.500   1.3324   0.05101   0.04543  -0.0045   0.0236   1.0001
  12.000   1.3276   0.05740   0.05202  -0.0041   0.0229   1.0001
  12.500   1.3140   0.06516   0.06017  -0.0060   0.0225   1.0001
  13.000   1.2937   0.07462   0.07001  -0.0092   0.0221   1.0001
  13.500   1.2663   0.08605   0.08182  -0.0141   0.0218   1.0001
  14.000   1.2301   0.10005   0.09620  -0.0210   0.0216   1.0001
  14.500   1.1797   0.11815   0.11471  -0.0307   0.0216   1.0001
  15.000   1.0859   0.14886   0.14594  -0.0480   0.0223   1.0001
  16.500   0.6216   0.20692   0.20449  -0.0497   0.0287   1.0001
  17.000   0.6325   0.21121   0.20879  -0.0514   0.0277   1.0001
  18.000   0.6377   0.22468   0.22229  -0.0572   0.0242   1.0001
  18.500   0.6473   0.22924   0.22687  -0.0591   0.0233   1.0001
  19.000   0.6592   0.23464   0.23229  -0.0605   0.0229   1.0001
  19.500   0.6547   0.24289   0.24055  -0.0648   0.0209   1.0001
  20.000   0.6625   0.24789   0.24557  -0.0670   0.0197   1.0001

