  
       XFOIL         Version 6.99
  
 Calculated polar for: NACA 6213                                       
  
 1 1 Reynolds number fixed          Mach number fixed         
  
 xtrf =   1.000 (top)        1.000 (bottom)  
 Mach =   0.000     Re =     0.400 e 6     Ncrit =   9.000
  
   alpha    CL        CD       CDp       CM     Top_Xtr  Bot_Xtr
  ------ -------- --------- --------- -------- -------- --------
   0.000   0.5833   0.01559   0.00662  -0.0950   0.3040   0.0466
   0.500   0.6353   0.01538   0.00625  -0.0941   0.2953   0.0522
   1.000   0.6855   0.01518   0.00596  -0.0931   0.2887   0.0595
   1.500   0.7378   0.01499   0.00577  -0.0925   0.2846   0.0687
   2.000   0.7897   0.01499   0.00574  -0.0919   0.2802   0.0814
   2.500   0.8406   0.01519   0.00587  -0.0911   0.2761   0.0987
   3.000   0.8917   0.01555   0.00620  -0.0905   0.2728   0.1262
   3.500   0.9418   0.01404   0.00659  -0.0898   0.2708   1.0000
   4.000   0.9931   0.01452   0.00696  -0.0892   0.2686   1.0000
   4.500   1.0441   0.01505   0.00741  -0.0886   0.2664   1.0000
   5.000   1.0948   0.01562   0.00790  -0.0880   0.2642   1.0000
   5.500   1.1450   0.01623   0.00844  -0.0874   0.2617   1.0000
   6.000   1.1960   0.01700   0.00913  -0.0871   0.2595   1.0000
   6.500   1.2491   0.01807   0.01014  -0.0873   0.2572   1.0000
   7.000   1.2991   0.01869   0.01081  -0.0868   0.2561   1.0000
   7.500   1.3487   0.01938   0.01157  -0.0863   0.2548   1.0000
   8.000   1.3974   0.02010   0.01237  -0.0857   0.2530   1.0000
   8.500   1.4452   0.02087   0.01322  -0.0851   0.2510   1.0000
   9.000   1.4934   0.02172   0.01416  -0.0846   0.2494   1.0000
   9.500   1.5412   0.02262   0.01513  -0.0841   0.2477   1.0000
  10.000   1.5889   0.02358   0.01618  -0.0837   0.2461   1.0000
  10.500   1.6376   0.02467   0.01734  -0.0836   0.2444   1.0000
  11.000   1.6902   0.02663   0.01936  -0.0846   0.2418   1.0000
  11.500   1.7313   0.02779   0.02074  -0.0833   0.2407   1.0000
  12.000   1.7696   0.02894   0.02213  -0.0815   0.2395   1.0000
  12.500   1.8055   0.03024   0.02367  -0.0796   0.2380   1.0000
  13.000   1.8319   0.03118   0.02483  -0.0760   0.2351   1.0000
  13.500   1.8513   0.03139   0.02510  -0.0712   0.2305   1.0000
  14.000   1.8872   0.03272   0.02646  -0.0697   0.2257   1.0000
  14.500   1.8890   0.03395   0.02801  -0.0635   0.2229   1.0000
  15.000   1.8948   0.03556   0.02987  -0.0588   0.2191   1.0000
  15.500   1.9117   0.03679   0.03119  -0.0559   0.2148   1.0000
  16.000   1.9213   0.03909   0.03366  -0.0530   0.2103   1.0000
  16.500   1.9143   0.04268   0.03761  -0.0499   0.2056   1.0000
  17.000   1.9179   0.04606   0.04114  -0.0487   0.1997   1.0000
  17.500   1.9130   0.05129   0.04673  -0.0483   0.1922   1.0000
  18.000   1.9070   0.05755   0.05324  -0.0492   0.1794   1.0000
  18.500   1.8744   0.06768   0.06348  -0.0510   0.1575   1.0000
  19.000   1.8101   0.08246   0.07837  -0.0540   0.1388   1.0000
  19.500   1.7386   0.09901   0.09515  -0.0582   0.1287   1.0000
  20.000   1.6683   0.11615   0.11258  -0.0636   0.1234   1.0000
