  
       XFOIL         Version 6.99
  
 Calculated polar for: NACA 6726                                       
  
 1 1 Reynolds number fixed          Mach number fixed         
  
 xtrf =   1.000 (top)        1.000 (bottom)  
 Mach =   0.000     Re =     0.400 e 6     Ncrit =   9.000
  
   alpha    CL        CD       CDp       CM     Top_Xtr  Bot_Xtr
  ------ -------- --------- --------- -------- -------- --------
   0.000   0.6250   0.01525   0.00907  -0.1788   0.7010   0.3926
   0.500   0.6880   0.01522   0.00885  -0.1803   0.6762   0.4109
   1.000   0.7386   0.01561   0.00914  -0.1796   0.6531   0.4289
   1.500   0.7867   0.01607   0.00956  -0.1785   0.6326   0.4471
   2.000   0.8335   0.01659   0.00999  -0.1772   0.6133   0.4653
   2.500   0.8744   0.01729   0.01065  -0.1749   0.5950   0.4832
   3.000   0.9167   0.01794   0.01135  -0.1729   0.5779   0.5025
   3.500   0.9603   0.01861   0.01201  -0.1711   0.5617   0.5215
   4.000   1.0037   0.01933   0.01262  -0.1694   0.5458   0.5404
   4.500   1.0433   0.02015   0.01352  -0.1671   0.5303   0.5605
   5.000   1.0851   0.02095   0.01436  -0.1652   0.5157   0.5797
   5.500   1.1266   0.02182   0.01514  -0.1632   0.5011   0.5989
   6.000   1.1644   0.02282   0.01621  -0.1607   0.4868   0.6181
   6.500   1.2040   0.02378   0.01721  -0.1586   0.4732   0.6357
   7.000   1.2424   0.02485   0.01817  -0.1563   0.4592   0.6534
   7.500   1.2779   0.02605   0.01948  -0.1537   0.4463   0.6695
   8.000   1.3145   0.02723   0.02065  -0.1513   0.4335   0.6842
   8.500   1.3477   0.02862   0.02201  -0.1485   0.4204   0.6995
   9.000   1.3824   0.02996   0.02342  -0.1460   0.4080   0.7123
   9.500   1.4146   0.03147   0.02486  -0.1432   0.3956   0.7260
  10.000   1.4456   0.03307   0.02654  -0.1405   0.3834   0.7388
  10.500   1.4759   0.03475   0.02826  -0.1378   0.3716   0.7512
  11.000   1.5033   0.03667   0.03014  -0.1349   0.3595   0.7640
  11.500   1.5315   0.03861   0.03219  -0.1322   0.3481   0.7762
  12.000   1.5563   0.04079   0.03436  -0.1293   0.3367   0.7888
  12.500   1.5799   0.04316   0.03682  -0.1265   0.3254   0.8018
  13.000   1.6025   0.04564   0.03938  -0.1237   0.3145   0.8154
  13.500   1.6207   0.04854   0.04228  -0.1207   0.3033   0.8300
  14.000   1.6403   0.05146   0.04537  -0.1181   0.2928   0.8489
  14.500   1.6525   0.05463   0.04866  -0.1147   0.2825   0.8916
  15.000   1.6635   0.05798   0.05213  -0.1117   0.2722   1.0000
  15.500   1.6767   0.06189   0.05607  -0.1096   0.2623   1.0000
  16.000   1.6848   0.06627   0.06042  -0.1074   0.2521   1.0000
  16.500   1.6952   0.07057   0.06482  -0.1056   0.2425   1.0000
  17.000   1.7002   0.07534   0.06959  -0.1037   0.2332   1.0000
  17.500   1.7048   0.08033   0.07465  -0.1021   0.2238   1.0000
  18.000   1.7078   0.08545   0.07983  -0.1008   0.2151   1.0000
  18.500   1.7070   0.09100   0.08537  -0.0995   0.2062   1.0000
  19.000   1.7089   0.09643   0.09093  -0.0988   0.1979   1.0000
  19.500   1.7078   0.10205   0.09654  -0.0982   0.1898   1.0000
   0.000   0.6250   0.01525   0.00907  -0.1788   0.7010   0.3926
   0.500   0.6880   0.01522   0.00885  -0.1803   0.6762   0.4109
   1.000   0.7386   0.01561   0.00914  -0.1796   0.6531   0.4289
   1.500   0.7867   0.01607   0.00956  -0.1785   0.6326   0.4471
   2.000   0.8335   0.01659   0.00999  -0.1772   0.6133   0.4653
   2.500   0.8744   0.01729   0.01065  -0.1749   0.5950   0.4832
   3.000   0.9167   0.01794   0.01135  -0.1729   0.5779   0.5025
   3.500   0.9603   0.01861   0.01201  -0.1711   0.5617   0.5215
   4.000   1.0037   0.01933   0.01262  -0.1694   0.5458   0.5404
   4.500   1.0433   0.02015   0.01352  -0.1671   0.5303   0.5605
   5.000   1.0851   0.02095   0.01436  -0.1652   0.5157   0.5797
   5.500   1.1266   0.02182   0.01514  -0.1632   0.5011   0.5989
   6.000   1.1644   0.02282   0.01621  -0.1607   0.4868   0.6181
   6.500   1.2040   0.02378   0.01721  -0.1586   0.4732   0.6357
   7.000   1.2424   0.02485   0.01817  -0.1563   0.4592   0.6534
   7.500   1.2779   0.02605   0.01948  -0.1537   0.4463   0.6695
   8.000   1.3145   0.02723   0.02065  -0.1513   0.4335   0.6842
   8.500   1.3477   0.02862   0.02201  -0.1485   0.4204   0.6995
   9.000   1.3824   0.02996   0.02342  -0.1460   0.4080   0.7123
   9.500   1.4146   0.03147   0.02486  -0.1432   0.3956   0.7260
  10.000   1.4456   0.03307   0.02654  -0.1405   0.3834   0.7388
  10.500   1.4759   0.03475   0.02826  -0.1378   0.3716   0.7512
  11.000   1.5033   0.03667   0.03014  -0.1349   0.3595   0.7640
  11.500   1.5315   0.03861   0.03219  -0.1322   0.3481   0.7762
  12.000   1.5563   0.04079   0.03436  -0.1293   0.3367   0.7888
  12.500   1.5799   0.04316   0.03682  -0.1265   0.3254   0.8018
  13.000   1.6025   0.04564   0.03938  -0.1237   0.3145   0.8154
  13.500   1.6207   0.04854   0.04228  -0.1207   0.3033   0.8300
  14.000   1.6403   0.05146   0.04537  -0.1181   0.2928   0.8489
  14.500   1.6525   0.05463   0.04866  -0.1147   0.2825   0.8916
  15.000   1.6635   0.05798   0.05213  -0.1117   0.2722   1.0000
  15.500   1.6767   0.06189   0.05607  -0.1096   0.2623   1.0000
  16.000   1.6848   0.06627   0.06042  -0.1074   0.2521   1.0000
  16.500   1.6952   0.07057   0.06482  -0.1056   0.2425   1.0000
  17.000   1.7002   0.07534   0.06959  -0.1037   0.2332   1.0000
  17.500   1.7048   0.08033   0.07465  -0.1021   0.2238   1.0000
  18.000   1.7078   0.08545   0.07983  -0.1008   0.2151   1.0000
  18.500   1.7070   0.09100   0.08537  -0.0995   0.2062   1.0000
  19.000   1.7089   0.09643   0.09093  -0.0988   0.1979   1.0000
  19.500   1.7078   0.10205   0.09654  -0.0982   0.1898   1.0000
