  
       XFOIL         Version 6.99
  
 Calculated polar for: NACA 6320                                       
  
 1 1 Reynolds number fixed          Mach number fixed         
  
 xtrf =   1.000 (top)        1.000 (bottom)  
 Mach =   0.000     Re =     0.400 e 6     Ncrit =   9.000
  
   alpha    CL        CD       CDp       CM     Top_Xtr  Bot_Xtr
  ------ -------- --------- --------- -------- -------- --------
   0.000   0.5791   0.01400   0.00543  -0.1062   0.4394   0.1818
   0.500   0.6278   0.01402   0.00555  -0.1050   0.4296   0.2107
   1.500   0.7151   0.01305   0.00605  -0.1013   0.4140   0.7003
   2.000   0.7554   0.01295   0.00656  -0.0972   0.4081   0.9299
   2.500   0.8565   0.01370   0.00709  -0.1069   0.4011   1.0000
   3.000   0.8918   0.01402   0.00731  -0.1032   0.3966   1.0000
   3.500   0.9315   0.01433   0.00757  -0.1004   0.3922   1.0000
   4.000   0.9761   0.01475   0.00790  -0.0986   0.3881   1.0000
   4.500   1.0241   0.01526   0.00829  -0.0976   0.3840   1.0000
   5.000   1.0778   0.01588   0.00880  -0.0977   0.3795   1.0000
   5.500   1.1221   0.01634   0.00928  -0.0961   0.3764   1.0000
   6.000   1.1686   0.01687   0.00980  -0.0950   0.3729   1.0000
   6.500   1.2154   0.01742   0.01033  -0.0941   0.3693   1.0000
   7.000   1.2642   0.01805   0.01089  -0.0935   0.3654   1.0000
   7.500   1.3214   0.01884   0.01161  -0.0946   0.3616   1.0000
   8.000   1.3606   0.01948   0.01235  -0.0925   0.3589   1.0000
   8.500   1.4010   0.02018   0.01311  -0.0908   0.3553   1.0000
   9.000   1.4442   0.02090   0.01386  -0.0896   0.3520   1.0000
   9.500   1.4894   0.02164   0.01458  -0.0888   0.3486   1.0000
  10.000   1.5472   0.02257   0.01545  -0.0902   0.3443   1.0000
  10.500   1.5762   0.02353   0.01657  -0.0871   0.3418   1.0000
  11.000   1.6070   0.02456   0.01774  -0.0844   0.3382   1.0000
  11.500   1.6423   0.02556   0.01881  -0.0826   0.3346   1.0000
  12.000   1.6825   0.02647   0.01973  -0.0815   0.3311   1.0000
  12.500   1.7328   0.02753   0.02078  -0.0820   0.3270   1.0000
  13.000   1.7455   0.02923   0.02271  -0.0776   0.3239   1.0000
  13.500   1.7656   0.03090   0.02455  -0.0745   0.3200   1.0000
  14.000   1.7942   0.03229   0.02601  -0.0726   0.3161   1.0000
  14.500   1.8354   0.03332   0.02702  -0.0721   0.3122   1.0000
  15.000   1.8420   0.03597   0.02991  -0.0685   0.3082   1.0000
  15.500   1.8463   0.03890   0.03305  -0.0651   0.3036   1.0000
  16.000   1.8672   0.04098   0.03521  -0.0634   0.2992   1.0000
  16.500   1.8931   0.04291   0.03718  -0.0622   0.2946   1.0000
  17.000   1.8742   0.04840   0.04298  -0.0590   0.2889   1.0000
  17.500   1.8842   0.05185   0.04650  -0.0578   0.2831   1.0000
  18.000   1.8746   0.05749   0.05233  -0.0564   0.2764   1.0000
  18.500   1.8668   0.06336   0.05835  -0.0557   0.2692   1.0000
  19.000   1.8531   0.07006   0.06522  -0.0552   0.2619   1.0000
  19.500   1.8408   0.07687   0.07214  -0.0552   0.2540   1.0000
  20.000   1.8010   0.08721   0.08272  -0.0556   0.2449   1.0000
   0.000   0.5791   0.01400   0.00543  -0.1062   0.4394   0.1818
   0.500   0.6278   0.01402   0.00555  -0.1050   0.4296   0.2107
   1.500   0.7151   0.01305   0.00605  -0.1013   0.4140   0.7003
   2.000   0.7554   0.01295   0.00656  -0.0972   0.4081   0.9299
   2.500   0.8565   0.01370   0.00709  -0.1069   0.4011   1.0000
   3.000   0.8918   0.01402   0.00731  -0.1032   0.3966   1.0000
   3.500   0.9315   0.01433   0.00757  -0.1004   0.3922   1.0000
   4.000   0.9761   0.01475   0.00790  -0.0986   0.3881   1.0000
   4.500   1.0241   0.01526   0.00829  -0.0976   0.3840   1.0000
   5.000   1.0778   0.01588   0.00880  -0.0977   0.3795   1.0000
   5.500   1.1221   0.01634   0.00928  -0.0961   0.3764   1.0000
   6.000   1.1686   0.01687   0.00980  -0.0950   0.3729   1.0000
   6.500   1.2154   0.01742   0.01033  -0.0941   0.3693   1.0000
   7.000   1.2642   0.01805   0.01089  -0.0935   0.3654   1.0000
   7.500   1.3214   0.01884   0.01161  -0.0946   0.3616   1.0000
   8.000   1.3606   0.01948   0.01235  -0.0925   0.3589   1.0000
   8.500   1.4010   0.02018   0.01311  -0.0908   0.3553   1.0000
   9.000   1.4442   0.02090   0.01386  -0.0896   0.3520   1.0000
   9.500   1.4894   0.02164   0.01458  -0.0888   0.3486   1.0000
  10.000   1.5472   0.02257   0.01545  -0.0902   0.3443   1.0000
  10.500   1.5762   0.02353   0.01657  -0.0871   0.3418   1.0000
  11.000   1.6070   0.02456   0.01774  -0.0844   0.3382   1.0000
  11.500   1.6423   0.02556   0.01881  -0.0826   0.3346   1.0000
  12.000   1.6825   0.02647   0.01973  -0.0815   0.3311   1.0000
  12.500   1.7328   0.02753   0.02078  -0.0820   0.3270   1.0000
  13.000   1.7455   0.02923   0.02271  -0.0776   0.3239   1.0000
  13.500   1.7656   0.03090   0.02455  -0.0745   0.3200   1.0000
  14.000   1.7942   0.03229   0.02601  -0.0726   0.3161   1.0000
  14.500   1.8354   0.03332   0.02702  -0.0721   0.3122   1.0000
  15.000   1.8420   0.03597   0.02991  -0.0685   0.3082   1.0000
  15.500   1.8463   0.03890   0.03305  -0.0651   0.3036   1.0000
  16.000   1.8672   0.04098   0.03521  -0.0634   0.2992   1.0000
  16.500   1.8931   0.04291   0.03718  -0.0622   0.2946   1.0000
  17.000   1.8742   0.04840   0.04298  -0.0590   0.2889   1.0000
  17.500   1.8842   0.05185   0.04650  -0.0578   0.2831   1.0000
  18.000   1.8746   0.05749   0.05233  -0.0564   0.2764   1.0000
  18.500   1.8668   0.06336   0.05835  -0.0557   0.2692   1.0000
  19.000   1.8531   0.07006   0.06522  -0.0552   0.2619   1.0000
  19.500   1.8408   0.07687   0.07214  -0.0552   0.2540   1.0000
  20.000   1.8010   0.08721   0.08272  -0.0556   0.2449   1.0000
   0.000   0.5791   0.01400   0.00543  -0.1062   0.4394   0.1818
   0.500   0.6278   0.01402   0.00555  -0.1050   0.4296   0.2107
   1.500   0.7151   0.01305   0.00605  -0.1013   0.4140   0.7003
   2.000   0.7554   0.01295   0.00656  -0.0972   0.4081   0.9299
   2.500   0.8565   0.01370   0.00709  -0.1069   0.4011   1.0000
   3.000   0.8918   0.01402   0.00731  -0.1032   0.3966   1.0000
   3.500   0.9315   0.01433   0.00757  -0.1004   0.3922   1.0000
   4.000   0.9761   0.01475   0.00790  -0.0986   0.3881   1.0000
   4.500   1.0241   0.01526   0.00829  -0.0976   0.3840   1.0000
   5.000   1.0778   0.01588   0.00880  -0.0977   0.3795   1.0000
   5.500   1.1221   0.01634   0.00928  -0.0961   0.3764   1.0000
   6.000   1.1686   0.01687   0.00980  -0.0950   0.3729   1.0000
   6.500   1.2154   0.01742   0.01033  -0.0941   0.3693   1.0000
   7.000   1.2642   0.01805   0.01089  -0.0935   0.3654   1.0000
   7.500   1.3214   0.01884   0.01161  -0.0946   0.3616   1.0000
   8.000   1.3606   0.01948   0.01235  -0.0925   0.3589   1.0000
   8.500   1.4010   0.02018   0.01311  -0.0908   0.3553   1.0000
   9.000   1.4442   0.02090   0.01386  -0.0896   0.3520   1.0000
   9.500   1.4894   0.02164   0.01458  -0.0888   0.3486   1.0000
  10.000   1.5472   0.02257   0.01545  -0.0902   0.3443   1.0000
  10.500   1.5762   0.02353   0.01657  -0.0871   0.3418   1.0000
  11.000   1.6070   0.02456   0.01774  -0.0844   0.3382   1.0000
  11.500   1.6423   0.02556   0.01881  -0.0826   0.3346   1.0000
  12.000   1.6825   0.02647   0.01973  -0.0815   0.3311   1.0000
  12.500   1.7328   0.02753   0.02078  -0.0820   0.3270   1.0000
  13.000   1.7455   0.02923   0.02271  -0.0776   0.3239   1.0000
  13.500   1.7656   0.03090   0.02455  -0.0745   0.3200   1.0000
  14.000   1.7942   0.03229   0.02601  -0.0726   0.3161   1.0000
  14.500   1.8354   0.03332   0.02702  -0.0721   0.3122   1.0000
  15.000   1.8420   0.03597   0.02991  -0.0685   0.3082   1.0000
  15.500   1.8463   0.03890   0.03305  -0.0651   0.3036   1.0000
  16.000   1.8672   0.04098   0.03521  -0.0634   0.2992   1.0000
  16.500   1.8931   0.04291   0.03718  -0.0622   0.2946   1.0000
  17.000   1.8742   0.04840   0.04298  -0.0590   0.2889   1.0000
  17.500   1.8842   0.05185   0.04650  -0.0578   0.2831   1.0000
  18.000   1.8746   0.05749   0.05233  -0.0564   0.2764   1.0000
  18.500   1.8668   0.06336   0.05835  -0.0557   0.2692   1.0000
  19.000   1.8531   0.07006   0.06522  -0.0552   0.2619   1.0000
  19.500   1.8408   0.07687   0.07214  -0.0552   0.2540   1.0000
  20.000   1.8010   0.08721   0.08272  -0.0556   0.2449   1.0000
