  
       XFOIL         Version 6.99
  
 Calculated polar for: NACA 5410                                       
  
 1 1 Reynolds number fixed          Mach number fixed         
  
 xtrf =   1.000 (top)        1.000 (bottom)  
 Mach =   0.000     Re =     0.400 e 6     Ncrit =   9.000
  
   alpha    CL        CD       CDp       CM     Top_Xtr  Bot_Xtr
  ------ -------- --------- --------- -------- -------- --------
   0.000   0.5829   0.00783   0.00240  -0.1296   0.7163   0.6424
   0.500   0.6356   0.00728   0.00238  -0.1282   0.6891   1.0000
   1.000   0.6893   0.00754   0.00241  -0.1277   0.6621   1.0000
   1.500   0.7428   0.00784   0.00250  -0.1271   0.6366   1.0000
   2.000   0.7962   0.00817   0.00265  -0.1266   0.6130   1.0000
   2.500   0.8496   0.00850   0.00284  -0.1262   0.5919   1.0000
   3.000   0.9030   0.00884   0.00309  -0.1258   0.5729   1.0000
   3.500   0.9564   0.00920   0.00338  -0.1254   0.5559   1.0000
   4.000   1.0096   0.00957   0.00370  -0.1250   0.5403   1.0000
   4.500   1.0625   0.00995   0.00407  -0.1245   0.5256   1.0000
   5.000   1.1150   0.01035   0.00447  -0.1240   0.5109   1.0000
   5.500   1.1665   0.01074   0.00489  -0.1233   0.4941   1.0000
   6.000   1.2138   0.01114   0.00523  -0.1218   0.4625   1.0000
   6.500   1.2625   0.01158   0.00571  -0.1206   0.4388   1.0000
   7.000   1.3095   0.01208   0.00623  -0.1192   0.4104   1.0000
   7.500   1.3532   0.01272   0.00682  -0.1172   0.3671   1.0000
   8.000   1.3865   0.01404   0.00780  -0.1136   0.2863   1.0000
   8.500   1.3994   0.01680   0.00977  -0.1071   0.1564   1.0000
   9.000   1.4035   0.01968   0.01209  -0.0993   0.0723   1.0000
   9.500   1.4186   0.02197   0.01431  -0.0935   0.0480   1.0000
  10.000   1.4346   0.02430   0.01672  -0.0884   0.0383   1.0000
  10.500   1.4448   0.02721   0.01974  -0.0833   0.0327   1.0000
  11.000   1.4583   0.03011   0.02280  -0.0791   0.0290   1.0000
  11.500   1.4581   0.03440   0.02726  -0.0745   0.0263   1.0000
  12.000   1.4689   0.03806   0.03110  -0.0716   0.0240   1.0000
  12.500   1.4712   0.04276   0.03595  -0.0687   0.0223   1.0000
  13.000   1.4639   0.04862   0.04198  -0.0656   0.0211   1.0000
  13.500   1.4704   0.05336   0.04696  -0.0638   0.0199   1.0000
  14.000   1.4753   0.05846   0.05224  -0.0624   0.0186   1.0000
  14.500   1.4778   0.06394   0.05783  -0.0613   0.0176   1.0000
  15.000   1.4767   0.06955   0.06363  -0.0589   0.0166   1.0000
  15.500   1.4790   0.07546   0.06983  -0.0583   0.0160   1.0000
  16.000   1.4786   0.08181   0.07647  -0.0579   0.0154   1.0000
  16.500   1.4756   0.08872   0.08364  -0.0582   0.0148   1.0000
  17.000   1.4692   0.09634   0.09153  -0.0593   0.0143   1.0000
  17.500   1.4620   0.10433   0.09974  -0.0612   0.0138   1.0000
  18.000   1.4523   0.11261   0.10821  -0.0632   0.0134   1.0000
  18.500   1.4254   0.12438   0.12036  -0.0671   0.0131   1.0000
  19.000   1.3994   0.13751   0.13389  -0.0743   0.0130   1.0000
  19.500   1.3695   0.15236   0.14913  -0.0833   0.0129   1.0000
  20.000   1.3353   0.16964   0.16676  -0.0947   0.0130   1.0000
