  
       XFOIL         Version 6.99
  
 Calculated polar for: NACA 2506                                       
  
 1 1 Reynolds number fixed          Mach number fixed         
  
 xtrf =   1.000 (top)        1.000 (bottom)  
 Mach =   0.000     Re =     0.400 e 6     Ncrit =   9.000
  
   alpha    CL        CD       CDp       CM     Top_Xtr  Bot_Xtr
  ------ -------- --------- --------- -------- -------- --------
   0.000   0.2668   0.00585   0.00199  -0.0676   0.9581   1.0000
   0.500   0.3304   0.00573   0.00183  -0.0688   0.9418   1.0000
   1.000   0.3843   0.00566   0.00175  -0.0678   0.9172   1.0000
   1.500   0.4366   0.00564   0.00171  -0.0663   0.8866   1.0000
   2.000   0.4867   0.00571   0.00168  -0.0643   0.8357   1.0000
   2.500   0.5355   0.00602   0.00173  -0.0620   0.7467   1.0000
   3.000   0.5824   0.00676   0.00193  -0.0597   0.6060   1.0000
   3.500   0.6233   0.00866   0.00254  -0.0573   0.3081   1.0000
   4.000   0.6650   0.01131   0.00393  -0.0556   0.0395   1.0000
   4.500   0.7138   0.01286   0.00558  -0.0541   0.0254   1.0000
   5.000   0.7608   0.01481   0.00773  -0.0523   0.0198   1.0000
   5.500   0.8082   0.01722   0.01031  -0.0504   0.0168   1.0000
   6.000   0.8558   0.02101   0.01444  -0.0484   0.0159   1.0000
