  
       XFOIL         Version 6.99
  
 Calculated polar for: NACA 6618                                       
  
 1 1 Reynolds number fixed          Mach number fixed         
  
 xtrf =   1.000 (top)        1.000 (bottom)  
 Mach =   0.000     Re =     0.400 e 6     Ncrit =   9.000
  
   alpha    CL        CD       CDp       CM     Top_Xtr  Bot_Xtr
  ------ -------- --------- --------- -------- -------- --------
   0.000   0.8053   0.01175   0.00597  -0.2045   0.7951   0.4259
   0.500   0.8741   0.01141   0.00564  -0.2069   0.7873   0.4602
   1.000   0.9196   0.01137   0.00573  -0.2046   0.7748   0.4910
   1.500   0.9739   0.01126   0.00567  -0.2040   0.7627   0.5240
   2.000   1.0305   0.01113   0.00557  -0.2039   0.7493   0.5558
   2.500   1.0771   0.01115   0.00563  -0.2017   0.7322   0.5858
   3.000   1.1082   0.01131   0.00582  -0.1964   0.7109   0.6130
   3.500   1.1439   0.01157   0.00610  -0.1921   0.6859   0.6389
   4.000   1.1827   0.01194   0.00642  -0.1886   0.6581   0.6656
   4.500   1.2163   0.01251   0.00693  -0.1842   0.6268   0.6938
   5.000   1.2504   0.01317   0.00756  -0.1802   0.5977   0.7253
   5.500   1.2844   0.01388   0.00828  -0.1762   0.5713   0.7707
   6.000   1.3087   0.01430   0.00893  -0.1701   0.5478   1.0000
   6.500   1.3425   0.01529   0.00982  -0.1665   0.5245   1.0000
   7.000   1.3748   0.01636   0.01081  -0.1628   0.5014   1.0000
   7.500   1.4051   0.01755   0.01192  -0.1588   0.4785   1.0000
   8.000   1.4340   0.01886   0.01314  -0.1548   0.4557   1.0000
   8.500   1.4616   0.02030   0.01448  -0.1507   0.4330   1.0000
   9.000   1.4889   0.02181   0.01594  -0.1468   0.4105   1.0000
   9.500   1.5152   0.02347   0.01756  -0.1429   0.3875   1.0000
  10.000   1.5399   0.02530   0.01933  -0.1389   0.3643   1.0000
  10.500   1.5619   0.02736   0.02133  -0.1348   0.3412   1.0000
  11.000   1.5833   0.02958   0.02349  -0.1309   0.3182   1.0000
  11.500   1.6039   0.03196   0.02583  -0.1271   0.2948   1.0000
  12.000   1.6204   0.03469   0.02850  -0.1231   0.2714   1.0000
  12.500   1.6354   0.03767   0.03143  -0.1192   0.2489   1.0000
  13.000   1.6501   0.04080   0.03452  -0.1155   0.2265   1.0000
  13.500   1.6595   0.04446   0.03813  -0.1117   0.2051   1.0000
  14.000   1.6678   0.04839   0.04203  -0.1081   0.1855   1.0000
  14.500   1.6751   0.05255   0.04618  -0.1048   0.1671   1.0000
  15.000   1.6788   0.05721   0.05084  -0.1017   0.1506   1.0000
  15.500   1.6799   0.06233   0.05597  -0.0989   0.1361   1.0000
  16.000   1.6792   0.06779   0.06146  -0.0964   0.1236   1.0000
  16.500   1.6774   0.07357   0.06730  -0.0943   0.1128   1.0000
  17.000   1.6741   0.07970   0.07351  -0.0927   0.1036   1.0000
  17.500   1.6696   0.08609   0.07999  -0.0914   0.0956   1.0000
  18.000   1.6631   0.09287   0.08686  -0.0906   0.0889   1.0000
  18.500   1.6531   0.10021   0.09427  -0.0903   0.0830   1.0000
  19.000   1.6501   0.10673   0.10094  -0.0904   0.0776   1.0000
  19.500   1.6428   0.11389   0.10820  -0.0910   0.0730   1.0000
  20.000   1.6380   0.12082   0.11522  -0.0921   0.0688   1.0000
   0.000   0.8053   0.01175   0.00597  -0.2045   0.7951   0.4259
   0.500   0.8741   0.01141   0.00564  -0.2069   0.7873   0.4602
   1.000   0.9196   0.01137   0.00573  -0.2046   0.7748   0.4910
   1.500   0.9739   0.01126   0.00567  -0.2040   0.7627   0.5240
   2.000   1.0305   0.01113   0.00557  -0.2039   0.7493   0.5558
   2.500   1.0771   0.01115   0.00563  -0.2017   0.7322   0.5858
   3.000   1.1082   0.01131   0.00582  -0.1964   0.7109   0.6130
   3.500   1.1439   0.01157   0.00610  -0.1921   0.6859   0.6389
   4.000   1.1827   0.01194   0.00642  -0.1886   0.6581   0.6656
   4.500   1.2163   0.01251   0.00693  -0.1842   0.6268   0.6938
   5.000   1.2504   0.01317   0.00756  -0.1802   0.5977   0.7253
   5.500   1.2844   0.01388   0.00828  -0.1762   0.5713   0.7707
   6.000   1.3087   0.01430   0.00893  -0.1701   0.5478   1.0000
   6.500   1.3425   0.01529   0.00982  -0.1665   0.5245   1.0000
   7.000   1.3748   0.01636   0.01081  -0.1628   0.5014   1.0000
   7.500   1.4051   0.01755   0.01192  -0.1588   0.4785   1.0000
   8.000   1.4340   0.01886   0.01314  -0.1548   0.4557   1.0000
   8.500   1.4616   0.02030   0.01448  -0.1507   0.4330   1.0000
   9.000   1.4889   0.02181   0.01594  -0.1468   0.4105   1.0000
   9.500   1.5152   0.02347   0.01756  -0.1429   0.3875   1.0000
  10.000   1.5399   0.02530   0.01933  -0.1389   0.3643   1.0000
  10.500   1.5619   0.02736   0.02133  -0.1348   0.3412   1.0000
  11.000   1.5833   0.02958   0.02349  -0.1309   0.3182   1.0000
  11.500   1.6039   0.03196   0.02583  -0.1271   0.2948   1.0000
  12.000   1.6204   0.03469   0.02850  -0.1231   0.2714   1.0000
  12.500   1.6354   0.03767   0.03143  -0.1192   0.2489   1.0000
  13.000   1.6501   0.04080   0.03452  -0.1155   0.2265   1.0000
  13.500   1.6595   0.04446   0.03813  -0.1117   0.2051   1.0000
  14.000   1.6678   0.04839   0.04203  -0.1081   0.1855   1.0000
  14.500   1.6751   0.05255   0.04618  -0.1048   0.1671   1.0000
  15.000   1.6788   0.05721   0.05084  -0.1017   0.1506   1.0000
  15.500   1.6799   0.06233   0.05597  -0.0989   0.1361   1.0000
  16.000   1.6792   0.06779   0.06146  -0.0964   0.1236   1.0000
  16.500   1.6774   0.07357   0.06730  -0.0943   0.1128   1.0000
  17.000   1.6741   0.07970   0.07351  -0.0927   0.1036   1.0000
  17.500   1.6696   0.08609   0.07999  -0.0914   0.0956   1.0000
  18.000   1.6631   0.09287   0.08686  -0.0906   0.0889   1.0000
  18.500   1.6531   0.10021   0.09427  -0.0903   0.0830   1.0000
  19.000   1.6501   0.10673   0.10094  -0.0904   0.0776   1.0000
  19.500   1.6428   0.11389   0.10820  -0.0910   0.0730   1.0000
  20.000   1.6380   0.12082   0.11522  -0.0921   0.0688   1.0000
