  
       XFOIL         Version 6.99
  
 Calculated polar for: NACA 4708                                       
  
 1 1 Reynolds number fixed          Mach number fixed         
  
 xtrf =   1.000 (top)        1.000 (bottom)  
 Mach =   0.000     Re =     0.400 e 6     Ncrit =   9.000
  
   alpha    CL        CD       CDp       CM     Top_Xtr  Bot_Xtr
  ------ -------- --------- --------- -------- -------- --------
   0.000   0.5234   0.01404   0.00945  -0.1541   0.9406   0.6933
   0.500   0.5919   0.01378   0.00929  -0.1564   0.9346   0.7307
   1.500   0.7325   0.01257   0.00839  -0.1612   0.9204   0.7903
   2.000   0.8150   0.01077   0.00681  -0.1651   0.9083   0.8196
   2.500   0.8897   0.00867   0.00492  -0.1668   0.8882   0.8542
   3.000   0.9342   0.00764   0.00416  -0.1628   0.8472   1.0000
   3.500   0.9739   0.00885   0.00391  -0.1581   0.5614   1.0000
   4.000   0.9966   0.01105   0.00496  -0.1517   0.3371   1.0000
   4.500   1.0273   0.01358   0.00621  -0.1476   0.1083   1.0000
   5.000   1.0688   0.01524   0.00753  -0.1450   0.0475   1.0000
   5.500   1.1123   0.01659   0.00890  -0.1425   0.0344   1.0000
   6.000   1.1523   0.01832   0.01070  -0.1394   0.0278   1.0000
   6.500   1.1930   0.01995   0.01241  -0.1365   0.0235   1.0000
   7.500   1.2762   0.02456   0.01738  -0.1310   0.0183   1.0000
   8.000   1.3199   0.02766   0.02065  -0.1290   0.0166   1.0000
