  
       XFOIL         Version 6.99
  
 Calculated polar for: NACA 2612                                       
  
 1 1 Reynolds number fixed          Mach number fixed         
  
 xtrf =   1.000 (top)        1.000 (bottom)  
 Mach =   0.000     Re =     0.400 e 6     Ncrit =   9.000
  
   alpha    CL        CD       CDp       CM     Top_Xtr  Bot_Xtr
  ------ -------- --------- --------- -------- -------- --------
   0.500   0.3479   0.00725   0.00274  -0.0747   0.8419   0.7571
   1.000   0.3993   0.00701   0.00269  -0.0729   0.8165   0.8241
   1.500   0.4487   0.00684   0.00270  -0.0703   0.7855   0.9153
   2.000   0.5247   0.00690   0.00267  -0.0739   0.7442   0.9859
   2.500   0.5865   0.00714   0.00267  -0.0750   0.6881   1.0000
   3.000   0.6320   0.00756   0.00278  -0.0727   0.6224   1.0000
   3.500   0.6776   0.00812   0.00301  -0.0705   0.5574   1.0000
   4.000   0.7240   0.00870   0.00333  -0.0685   0.4946   1.0000
   4.500   0.7705   0.00935   0.00370  -0.0667   0.4305   1.0000
   5.000   0.8165   0.01009   0.00414  -0.0648   0.3639   1.0000
   5.500   0.8617   0.01095   0.00469  -0.0630   0.2947   1.0000
   6.000   0.9062   0.01192   0.00533  -0.0611   0.2261   1.0000
   6.500   0.9499   0.01300   0.00609  -0.0592   0.1642   1.0000
   7.000   0.9930   0.01413   0.00697  -0.0572   0.1171   1.0000
   7.500   1.0354   0.01530   0.00796  -0.0551   0.0878   1.0000
   8.000   1.0772   0.01645   0.00907  -0.0528   0.0703   1.0000
   8.500   1.1174   0.01764   0.01026  -0.0503   0.0591   1.0000
   9.000   1.1547   0.01897   0.01161  -0.0474   0.0513   1.0000
   9.500   1.1860   0.02051   0.01317  -0.0436   0.0457   1.0000
  10.000   1.2190   0.02176   0.01452  -0.0402   0.0414   1.0000
  10.500   1.2439   0.02367   0.01651  -0.0358   0.0381   1.0000
  11.000   1.2719   0.02532   0.01827  -0.0322   0.0352   1.0000
  11.500   1.2917   0.02775   0.02079  -0.0280   0.0329   1.0000
  12.000   1.3155   0.02985   0.02309  -0.0245   0.0309   1.0000
  12.500   1.3348   0.03238   0.02570  -0.0211   0.0292   1.0000
  13.000   1.3483   0.03578   0.02927  -0.0175   0.0279   1.0000
  13.500   1.3628   0.03892   0.03267  -0.0147   0.0265   1.0000
  14.000   1.3741   0.04246   0.03639  -0.0123   0.0253   1.0000
  14.500   1.3819   0.04665   0.04069  -0.0103   0.0244   1.0000
  15.000   1.3808   0.05220   0.04651  -0.0085   0.0236   1.0000
  15.500   1.3747   0.05841   0.05309  -0.0080   0.0230   1.0000
  16.000   1.3636   0.06580   0.06082  -0.0088   0.0225   1.0000
  16.500   1.3486   0.07435   0.06969  -0.0110   0.0219   1.0000
  17.000   1.3289   0.08430   0.07995  -0.0149   0.0215   1.0000
  17.500   1.3055   0.09562   0.09156  -0.0202   0.0211   1.0000
  18.000   1.2758   0.10878   0.10503  -0.0271   0.0209   1.0000
  18.500   1.2314   0.12611   0.12274  -0.0374   0.0208   1.0000
  20.000   0.6583   0.20940   0.20704  -0.0629   0.0293   1.0000
