  
       XFOIL         Version 6.99
  
 Calculated polar for: NACA 3417                                       
  
 1 1 Reynolds number fixed          Mach number fixed         
  
 xtrf =   1.000 (top)        1.000 (bottom)  
 Mach =   0.000     Re =     0.400 e 6     Ncrit =   9.000
  
   alpha    CL        CD       CDp       CM     Top_Xtr  Bot_Xtr
  ------ -------- --------- --------- -------- -------- --------
   0.000   0.3409   0.00904   0.00324  -0.0734   0.6237   0.6751
   0.500   0.3914   0.00900   0.00336  -0.0718   0.6029   0.7520
   1.000   0.4414   0.00904   0.00353  -0.0701   0.5836   0.8231
   1.500   0.4918   0.00919   0.00375  -0.0682   0.5657   0.8857
   2.000   0.5468   0.00947   0.00400  -0.0673   0.5488   0.9340
   2.500   0.6131   0.00983   0.00426  -0.0691   0.5323   0.9655
   3.000   0.6953   0.01023   0.00454  -0.0746   0.5156   0.9811
   3.500   0.7806   0.01060   0.00479  -0.0809   0.4989   0.9927
   4.000   0.8593   0.01089   0.00500  -0.0860   0.4826   1.0000
   4.500   0.8974   0.01107   0.00516  -0.0827   0.4686   1.0000
   5.000   0.9359   0.01134   0.00538  -0.0794   0.4547   1.0000
   5.500   0.9747   0.01166   0.00564  -0.0761   0.4403   1.0000
   6.500   1.0533   0.01233   0.00623  -0.0697   0.4093   1.0000
   7.000   1.0939   0.01271   0.00659  -0.0668   0.3924   1.0000
   7.500   1.1338   0.01315   0.00701  -0.0639   0.3744   1.0000
   8.000   1.1713   0.01367   0.00749  -0.0606   0.3556   1.0000
   8.500   1.2045   0.01431   0.00807  -0.0567   0.3361   1.0000
   9.000   1.2395   0.01501   0.00876  -0.0533   0.3156   1.0000
   9.500   1.2729   0.01587   0.00960  -0.0499   0.2939   1.0000
  10.000   1.3031   0.01696   0.01063  -0.0463   0.2718   1.0000
  10.500   1.3317   0.01823   0.01186  -0.0427   0.2496   1.0000
  11.000   1.3583   0.01972   0.01330  -0.0393   0.2269   1.0000
  11.500   1.3792   0.02163   0.01514  -0.0355   0.2053   1.0000
  12.000   1.4008   0.02367   0.01718  -0.0323   0.1845   1.0000
  12.500   1.4163   0.02627   0.01974  -0.0290   0.1652   1.0000
  13.000   1.4286   0.02931   0.02276  -0.0259   0.1484   1.0000
  13.500   1.4396   0.03267   0.02615  -0.0233   0.1333   1.0000
  14.000   1.4465   0.03662   0.03013  -0.0211   0.1205   1.0000
  14.500   1.4505   0.04113   0.03469  -0.0193   0.1097   1.0000
  15.000   1.4513   0.04623   0.03986  -0.0180   0.1006   1.0000
  15.500   1.4480   0.05202   0.04571  -0.0172   0.0930   1.0000
  16.000   1.4449   0.05807   0.05185  -0.0169   0.0864   1.0000
  16.500   1.4426   0.06420   0.05812  -0.0170   0.0806   1.0000
  17.000   1.4339   0.07126   0.06526  -0.0174   0.0758   1.0000
  17.500   1.4285   0.07810   0.07223  -0.0182   0.0713   1.0000
  18.000   1.4213   0.08527   0.07951  -0.0192   0.0675   1.0000
  18.500   1.4144   0.09255   0.08689  -0.0206   0.0639   1.0000
  19.000   1.4091   0.09964   0.09411  -0.0221   0.0607   1.0000
  19.500   1.4042   0.10683   0.10140  -0.0240   0.0578   1.0000
  20.000   1.4005   0.11380   0.10848  -0.0260   0.0551   1.0000
