  
       XFOIL         Version 6.99
  
 Calculated polar for: NACA 0042                                       
  
 1 1 Reynolds number fixed          Mach number fixed         
  
 xtrf =   1.000 (top)        1.000 (bottom)  
 Mach =   0.000     Re =     0.400 e 6     Ncrit =   9.000
  
   alpha    CL        CD       CDp       CM     Top_Xtr  Bot_Xtr
  ------ -------- --------- --------- -------- -------- --------
   0.000   0.0000   0.02016   0.01231  -0.0000   0.4532   0.4533
   0.500  -0.0039   0.02022   0.01232   0.0098   0.4456   0.4609
   1.000  -0.0370   0.02034   0.01245   0.0250   0.4396   0.4675
   1.500  -0.0436   0.02042   0.01256   0.0352   0.4325   0.4756
   2.000  -0.0241   0.02056   0.01265   0.0407   0.4247   0.4844
   2.500  -0.0189   0.02087   0.01298   0.0483   0.4184   0.4922
   3.000   0.0015   0.02105   0.01325   0.0531   0.4111   0.5022
   3.500   0.0356   0.02133   0.01345   0.0556   0.4037   0.5123
   4.000   0.0532   0.02183   0.01403   0.0604   0.3972   0.5218
   4.500   0.0812   0.02223   0.01450   0.0634   0.3904   0.5327
   5.000   0.1179   0.02274   0.01491   0.0650   0.3835   0.5428
   5.500   0.1408   0.02342   0.01577   0.0683   0.3770   0.5548
   6.000   0.1726   0.02410   0.01644   0.0702   0.3706   0.5666
   6.500   0.2088   0.02475   0.01712   0.0714   0.3641   0.5791
   7.000   0.2345   0.02578   0.01828   0.0735   0.3578   0.5918
   7.500   0.2682   0.02666   0.01914   0.0746   0.3517   0.6049
   8.000   0.3021   0.02762   0.02019   0.0756   0.3457   0.6193
   8.500   0.3270   0.02907   0.02173   0.0772   0.3396   0.6330
   9.000   0.3637   0.03001   0.02271   0.0776   0.3338   0.6490
   9.500   0.3930   0.03146   0.02425   0.0784   0.3281   0.6641
  10.000   0.4166   0.03327   0.02620   0.0795   0.3223   0.6811
  10.500   0.4568   0.03423   0.02716   0.0793   0.3168   0.6983
  11.000   0.4759   0.03652   0.02961   0.0804   0.3113   0.7161
  11.500   0.5006   0.03853   0.03178   0.0809   0.3058   0.7353
  12.000   0.5439   0.03943   0.03262   0.0803   0.3006   0.7550
  12.500   0.5524   0.04267   0.03613   0.0816   0.2953   0.7759
  13.000   0.5725   0.04523   0.03883   0.0820   0.2900   0.7969
  13.500   0.6213   0.04574   0.03928   0.0811   0.2852   0.8191
  14.000   0.6131   0.05050   0.04436   0.0828   0.2798   0.8412
  14.500   0.6355   0.05302   0.04701   0.0831   0.2749   0.8639
  15.000   0.6742   0.05421   0.04818   0.0829   0.2705   0.8856
  15.500   0.6593   0.05972   0.05394   0.0846   0.2648   0.9069
  16.000   0.6813   0.06237   0.05663   0.0851   0.2604   0.9269
  16.500   0.7013   0.06557   0.05988   0.0849   0.2557   0.9433
  17.000   0.6925   0.07133   0.06578   0.0855   0.2501   0.9595
  17.500   0.7502   0.07317   0.06752   0.0809   0.2462   0.9674
  18.000   0.7386   0.08165   0.07622   0.0773   0.2398   0.9732
  18.500   0.7813   0.08548   0.08002   0.0720   0.2354   0.9786
  19.000   0.8114   0.08963   0.08416   0.0684   0.2310   0.9853
  19.500   0.8022   0.09872   0.09344   0.0632   0.2244   0.9872
  20.000   0.8796   0.09941   0.09399   0.0563   0.2217   0.9896
