  
       XFOIL         Version 6.99
  
 Calculated polar for: NACA 3215                                       
  
 1 1 Reynolds number fixed          Mach number fixed         
  
 xtrf =   1.000 (top)        1.000 (bottom)  
 Mach =   0.000     Re =     0.400 e 6     Ncrit =   9.000
  
   alpha    CL        CD       CDp       CM     Top_Xtr  Bot_Xtr
  ------ -------- --------- --------- -------- -------- --------
   0.000   0.2926   0.00847   0.00297  -0.0461   0.5544   0.7914
   0.500   0.3404   0.00863   0.00314  -0.0436   0.5113   0.8696
   1.000   0.3913   0.00904   0.00337  -0.0418   0.4663   0.9252
   1.500   0.4541   0.00961   0.00366  -0.0428   0.4180   0.9595
   2.000   0.5364   0.01032   0.00404  -0.0483   0.3716   0.9801
   2.500   0.6231   0.01092   0.00435  -0.0550   0.3395   0.9910
   3.500   0.7496   0.01179   0.00486  -0.0592   0.3094   1.0000
   4.000   0.7904   0.01203   0.00508  -0.0565   0.3014   1.0000
   4.500   0.8298   0.01247   0.00541  -0.0535   0.2944   1.0000
   5.000   0.8716   0.01288   0.00580  -0.0509   0.2889   1.0000
   5.500   0.9146   0.01325   0.00616  -0.0485   0.2832   1.0000
   6.000   0.9576   0.01379   0.00663  -0.0462   0.2781   1.0000
   6.500   1.0028   0.01436   0.00719  -0.0444   0.2735   1.0000
   7.000   1.0492   0.01481   0.00770  -0.0428   0.2690   1.0000
   7.500   1.0961   0.01534   0.00824  -0.0414   0.2644   1.0000
   8.000   1.1446   0.01622   0.00903  -0.0405   0.2591   1.0000
   8.500   1.1912   0.01670   0.00966  -0.0392   0.2553   1.0000
   9.000   1.2376   0.01727   0.01031  -0.0379   0.2506   1.0000
   9.500   1.2837   0.01793   0.01098  -0.0366   0.2457   1.0000
  10.000   1.3300   0.01880   0.01191  -0.0356   0.2406   1.0000
  10.500   1.3705   0.01932   0.01259  -0.0334   0.2351   1.0000
  11.000   1.4091   0.01996   0.01323  -0.0311   0.2287   1.0000
  11.500   1.4416   0.02065   0.01409  -0.0277   0.2225   1.0000
  12.000   1.4728   0.02131   0.01485  -0.0245   0.2160   1.0000
  12.500   1.5046   0.02228   0.01591  -0.0217   0.2095   1.0000
  13.000   1.5334   0.02318   0.01702  -0.0188   0.2024   1.0000
  13.500   1.5606   0.02444   0.01837  -0.0161   0.1951   1.0000
  14.000   1.5876   0.02581   0.01991  -0.0138   0.1862   1.0000
  14.500   1.6123   0.02758   0.02184  -0.0118   0.1759   1.0000
  15.000   1.6313   0.02996   0.02432  -0.0098   0.1640   1.0000
  15.500   1.6429   0.03318   0.02763  -0.0080   0.1502   1.0000
  16.000   1.6436   0.03767   0.03219  -0.0065   0.1353   1.0000
  16.500   1.6338   0.04364   0.03823  -0.0056   0.1207   1.0000
  17.000   1.6150   0.05117   0.04588  -0.0059   0.1069   1.0000
  17.500   1.5841   0.06083   0.05568  -0.0074   0.0957   1.0000
  18.000   1.5431   0.07245   0.06747  -0.0102   0.0871   1.0000
  18.500   1.4925   0.08602   0.08122  -0.0142   0.0806   1.0000
  19.000   1.4451   0.09964   0.09503  -0.0188   0.0745   1.0000
  19.500   1.4039   0.11272   0.10826  -0.0237   0.0689   1.0000
  20.000   1.3689   0.12509   0.12072  -0.0289   0.0636   1.0000
