  
       XFOIL         Version 6.99
  
 Calculated polar for: NACA 6722                                       
  
 1 1 Reynolds number fixed          Mach number fixed         
  
 xtrf =   1.000 (top)        1.000 (bottom)  
 Mach =   0.000     Re =     0.400 e 6     Ncrit =   9.000
  
   alpha    CL        CD       CDp       CM     Top_Xtr  Bot_Xtr
  ------ -------- --------- --------- -------- -------- --------
   0.000   0.6426   0.01731   0.01172  -0.1863   0.7847   0.4067
   1.000   0.7658   0.01601   0.01048  -0.1878   0.7461   0.4539
   1.500   0.8447   0.01488   0.00926  -0.1916   0.7181   0.4801
   2.000   0.9183   0.01432   0.00846  -0.1946   0.6854   0.5057
   2.500   0.9674   0.01478   0.00877  -0.1933   0.6544   0.5286
   3.000   1.0118   0.01541   0.00928  -0.1913   0.6283   0.5513
   3.500   1.0530   0.01611   0.00993  -0.1887   0.6048   0.5736
   4.000   1.0923   0.01688   0.01067  -0.1859   0.5828   0.5950
   4.500   1.1300   0.01773   0.01150  -0.1828   0.5619   0.6157
   5.000   1.1680   0.01859   0.01234  -0.1798   0.5419   0.6357
   5.500   1.2055   0.01952   0.01324  -0.1768   0.5224   0.6551
   6.000   1.2421   0.02049   0.01422  -0.1737   0.5037   0.6727
   6.500   1.2791   0.02149   0.01520  -0.1708   0.4854   0.6883
   7.000   1.3149   0.02257   0.01625  -0.1677   0.4675   0.7039
   7.500   1.3501   0.02372   0.01735  -0.1647   0.4499   0.7193
   8.000   1.3842   0.02489   0.01851  -0.1615   0.4323   0.7327
   8.500   1.4171   0.02620   0.01979  -0.1584   0.4149   0.7464
   9.000   1.4510   0.02751   0.02111  -0.1555   0.3979   0.7606
   9.500   1.4823   0.02893   0.02258  -0.1523   0.3812   0.7738
  10.000   1.5131   0.03046   0.02412  -0.1492   0.3646   0.7872
  10.500   1.5414   0.03219   0.02585  -0.1459   0.3484   0.8014
  11.000   1.5680   0.03406   0.02772  -0.1425   0.3321   0.8162
  11.500   1.5918   0.03617   0.02986  -0.1389   0.3160   0.8324
  12.000   1.6173   0.03823   0.03201  -0.1357   0.3004   0.8539
  12.500   1.6337   0.04018   0.03415  -0.1310   0.2857   1.0000
  13.000   1.6551   0.04292   0.03687  -0.1280   0.2708   1.0000
  13.500   1.6735   0.04594   0.03988  -0.1249   0.2562   1.0000
  14.000   1.6884   0.04933   0.04325  -0.1217   0.2421   1.0000
  14.500   1.6991   0.05317   0.04707  -0.1184   0.2283   1.0000
  15.000   1.7103   0.05712   0.05106  -0.1155   0.2152   1.0000
  15.500   1.7195   0.06139   0.05537  -0.1128   0.2028   1.0000
  16.000   1.7250   0.06610   0.06013  -0.1102   0.1911   1.0000
  16.500   1.7265   0.07134   0.06540  -0.1078   0.1802   1.0000
  17.000   1.7234   0.07718   0.07126  -0.1057   0.1696   1.0000
  17.500   1.7254   0.08259   0.07676  -0.1041   0.1598   1.0000
  18.000   1.7237   0.08847   0.08272  -0.1028   0.1508   1.0000
  18.500   1.7174   0.09496   0.08927  -0.1018   0.1426   1.0000
  19.000   1.7124   0.10141   0.09579  -0.1013   0.1346   1.0000
  19.500   1.7099   0.10759   0.10208  -0.1012   0.1273   1.0000
  20.000   1.7029   0.11437   0.10890  -0.1016   0.1207   1.0000
   0.000   0.6426   0.01731   0.01172  -0.1863   0.7847   0.4067
   1.000   0.7658   0.01601   0.01048  -0.1878   0.7461   0.4539
   1.500   0.8447   0.01488   0.00926  -0.1916   0.7181   0.4801
   2.000   0.9183   0.01432   0.00846  -0.1946   0.6854   0.5057
   2.500   0.9674   0.01478   0.00877  -0.1933   0.6544   0.5286
   3.000   1.0118   0.01541   0.00928  -0.1913   0.6283   0.5513
   3.500   1.0530   0.01611   0.00993  -0.1887   0.6048   0.5736
   4.000   1.0923   0.01688   0.01067  -0.1859   0.5828   0.5950
   4.500   1.1300   0.01773   0.01150  -0.1828   0.5619   0.6157
   5.000   1.1680   0.01859   0.01234  -0.1798   0.5419   0.6357
   5.500   1.2055   0.01952   0.01324  -0.1768   0.5224   0.6551
   6.000   1.2421   0.02049   0.01422  -0.1737   0.5037   0.6727
   6.500   1.2791   0.02149   0.01520  -0.1708   0.4854   0.6883
   7.000   1.3149   0.02257   0.01625  -0.1677   0.4675   0.7039
   7.500   1.3501   0.02372   0.01735  -0.1647   0.4499   0.7193
   8.000   1.3842   0.02489   0.01851  -0.1615   0.4323   0.7327
   8.500   1.4171   0.02620   0.01979  -0.1584   0.4149   0.7464
   9.000   1.4510   0.02751   0.02111  -0.1555   0.3979   0.7606
   9.500   1.4823   0.02893   0.02258  -0.1523   0.3812   0.7738
  10.000   1.5131   0.03046   0.02412  -0.1492   0.3646   0.7872
  10.500   1.5414   0.03219   0.02585  -0.1459   0.3484   0.8014
  11.000   1.5680   0.03406   0.02772  -0.1425   0.3321   0.8162
  11.500   1.5918   0.03617   0.02986  -0.1389   0.3160   0.8324
  12.000   1.6173   0.03823   0.03201  -0.1357   0.3004   0.8539
  12.500   1.6337   0.04018   0.03415  -0.1310   0.2857   1.0000
  13.000   1.6551   0.04292   0.03687  -0.1280   0.2708   1.0000
  13.500   1.6735   0.04594   0.03988  -0.1249   0.2562   1.0000
  14.000   1.6884   0.04933   0.04325  -0.1217   0.2421   1.0000
  14.500   1.6991   0.05317   0.04707  -0.1184   0.2283   1.0000
  15.000   1.7103   0.05712   0.05106  -0.1155   0.2152   1.0000
  15.500   1.7195   0.06139   0.05537  -0.1128   0.2028   1.0000
  16.000   1.7250   0.06610   0.06013  -0.1102   0.1911   1.0000
  16.500   1.7265   0.07134   0.06540  -0.1078   0.1802   1.0000
  17.000   1.7234   0.07718   0.07126  -0.1057   0.1696   1.0000
  17.500   1.7254   0.08259   0.07676  -0.1041   0.1598   1.0000
  18.000   1.7237   0.08847   0.08272  -0.1028   0.1508   1.0000
  18.500   1.7174   0.09496   0.08927  -0.1018   0.1426   1.0000
  19.000   1.7124   0.10141   0.09579  -0.1013   0.1346   1.0000
  19.500   1.7099   0.10759   0.10208  -0.1012   0.1273   1.0000
  20.000   1.7029   0.11437   0.10890  -0.1016   0.1207   1.0000
