  
       XFOIL         Version 6.99
  
 Calculated polar for: NACA 6120                                       
  
 1 1 Reynolds number fixed          Mach number fixed         
  
 xtrf =   1.000 (top)        1.000 (bottom)  
 Mach =   0.000     Re =     0.400 e 6     Ncrit =   9.000
  
   alpha    CL        CD       CDp       CM     Top_Xtr  Bot_Xtr
  ------ -------- --------- --------- -------- -------- --------
   0.500   0.5429   0.02335   0.01373  -0.0509   0.1672   0.0373
   1.000   0.5758   0.02262   0.01290  -0.0468   0.1599   0.0404
   1.500   0.6140   0.02211   0.01233  -0.0435   0.1564   0.0437
   2.000   0.6529   0.02235   0.01244  -0.0404   0.1537   0.0502
   2.500   0.6935   0.02206   0.01217  -0.0381   0.1514   0.0554
   4.500   0.8408   0.02356   0.01380  -0.0285   0.1457   0.0941
   5.000   0.8776   0.02473   0.01492  -0.0260   0.1449   0.0593
   5.500   0.9147   0.02559   0.01580  -0.0244   0.1441   0.0604
   6.000   0.9511   0.02666   0.01686  -0.0228   0.1434   0.0655
   6.500   0.9868   0.02788   0.01804  -0.0213   0.1427   0.0716
   7.000   1.0218   0.02922   0.01934  -0.0199   0.1418   0.0829
   0.500   0.5429   0.02335   0.01373  -0.0509   0.1672   0.0373
   1.000   0.5758   0.02262   0.01290  -0.0468   0.1599   0.0404
   1.500   0.6140   0.02211   0.01233  -0.0435   0.1564   0.0437
   2.000   0.6529   0.02235   0.01244  -0.0404   0.1537   0.0502
   2.500   0.6935   0.02206   0.01217  -0.0381   0.1514   0.0554
   4.500   0.8408   0.02356   0.01380  -0.0285   0.1457   0.0941
   5.000   0.8776   0.02473   0.01492  -0.0260   0.1449   0.0593
   5.500   0.9147   0.02559   0.01580  -0.0244   0.1441   0.0604
   6.000   0.9511   0.02666   0.01686  -0.0228   0.1434   0.0655
   6.500   0.9868   0.02788   0.01804  -0.0213   0.1427   0.0716
   7.000   1.0218   0.02922   0.01934  -0.0199   0.1418   0.0829
   0.500   0.5429   0.02335   0.01373  -0.0509   0.1672   0.0373
   1.000   0.5758   0.02262   0.01290  -0.0468   0.1599   0.0404
   1.500   0.6140   0.02211   0.01233  -0.0435   0.1564   0.0437
   2.000   0.6529   0.02235   0.01244  -0.0404   0.1537   0.0502
   2.500   0.6935   0.02206   0.01217  -0.0381   0.1514   0.0554
   4.500   0.8408   0.02356   0.01380  -0.0285   0.1457   0.0941
   5.000   0.8776   0.02473   0.01492  -0.0260   0.1449   0.0593
   5.500   0.9147   0.02559   0.01580  -0.0244   0.1441   0.0604
   6.000   0.9511   0.02666   0.01686  -0.0228   0.1434   0.0655
   6.500   0.9868   0.02788   0.01804  -0.0213   0.1427   0.0716
   7.000   1.0218   0.02922   0.01934  -0.0199   0.1418   0.0829
   0.500   0.5429   0.02335   0.01373  -0.0509   0.1672   0.0373
   1.000   0.5758   0.02262   0.01290  -0.0468   0.1599   0.0404
   1.500   0.6140   0.02211   0.01233  -0.0435   0.1564   0.0437
   2.000   0.6529   0.02235   0.01244  -0.0404   0.1537   0.0502
   2.500   0.6935   0.02206   0.01217  -0.0381   0.1514   0.0554
   4.500   0.8408   0.02356   0.01380  -0.0285   0.1457   0.0941
   5.000   0.8776   0.02473   0.01492  -0.0260   0.1449   0.0593
   5.500   0.9147   0.02559   0.01580  -0.0244   0.1441   0.0604
   6.000   0.9511   0.02666   0.01686  -0.0228   0.1434   0.0655
   6.500   0.9868   0.02788   0.01804  -0.0213   0.1427   0.0716
   7.000   1.0218   0.02922   0.01934  -0.0199   0.1418   0.0829
