  
       XFOIL         Version 6.99
  
 Calculated polar for: NACA 1106                                       
  
 1 1 Reynolds number fixed          Mach number fixed         
  
 xtrf =   1.000 (top)        1.000 (bottom)  
 Mach =   0.000     Re =     0.400 e 6     Ncrit =   9.000
  
   alpha    CL        CD       CDp       CM     Top_Xtr  Bot_Xtr
  ------ -------- --------- --------- -------- -------- --------
   0.000   0.1137   0.00530   0.00160  -0.0182   0.9720   1.0000
   0.500   0.1848   0.00524   0.00143  -0.0211   0.9297   1.0000
   1.000   0.2366   0.00531   0.00127  -0.0195   0.8529   1.0000
   1.500   0.2842   0.00567   0.00121  -0.0171   0.7469   1.0000
   2.000   0.3327   0.00625   0.00128  -0.0153   0.6220   1.0000
   2.500   0.3817   0.00704   0.00145  -0.0140   0.4709   1.0000
   3.000   0.4311   0.00808   0.00177  -0.0132   0.2988   1.0000
   3.500   0.4822   0.00896   0.00227  -0.0127   0.2092   1.0000
   4.000   0.5346   0.00958   0.00280  -0.0122   0.1833   1.0000
   4.500   0.5871   0.01017   0.00335  -0.0118   0.1605   1.0000
   5.000   0.6403   0.01058   0.00383  -0.0115   0.1386   1.0000
   5.500   0.6935   0.01100   0.00427  -0.0112   0.1050   1.0000
   6.000   0.7406   0.01329   0.00626  -0.0100   0.0232   1.0000
   6.500   0.7898   0.01497   0.00818  -0.0088   0.0179   1.0000
   7.500   0.8785   0.02150   0.01551  -0.0052   0.0128   1.0000
   8.000   0.9184   0.02644   0.02112  -0.0030   0.0118   1.0000
   8.500   0.9414   0.03525   0.03101   0.0000   0.0127   1.0000
