  
       XFOIL         Version 6.99
  
 Calculated polar for: NACA 1340                                       
  
 1 1 Reynolds number fixed          Mach number fixed         
  
 xtrf =   1.000 (top)        1.000 (bottom)  
 Mach =   0.000     Re =     0.400 e 6     Ncrit =   9.000
  
   alpha    CL        CD       CDp       CM     Top_Xtr  Bot_Xtr
  ------ -------- --------- --------- -------- -------- --------
   0.000  -0.0804   0.01896   0.01112   0.0167   0.4522   0.4660
   0.500  -0.0581   0.01904   0.01121   0.0219   0.4441   0.4759
   1.000  -0.0427   0.01920   0.01144   0.0283   0.4368   0.4854
   1.500  -0.0143   0.01943   0.01156   0.0322   0.4293   0.4946
   2.000   0.0163   0.01963   0.01185   0.0356   0.4222   0.5056
   2.500   0.0438   0.01998   0.01220   0.0393   0.4153   0.5156
   3.000   0.0798   0.02023   0.01246   0.0415   0.4086   0.5269
   3.500   0.1154   0.02065   0.01291   0.0437   0.4021   0.5383
   4.000   0.1474   0.02112   0.01343   0.0462   0.3959   0.5495
   4.500   0.1841   0.02156   0.01391   0.0479   0.3899   0.5622
   5.000   0.2252   0.02212   0.01442   0.0488   0.3838   0.5739
   5.500   0.2562   0.02277   0.01524   0.0510   0.3782   0.5880
   6.000   0.2915   0.02353   0.01596   0.0524   0.3725   0.6004
   6.500   0.3381   0.02396   0.01645   0.0524   0.3666   0.6172
   7.500   0.3973   0.02604   0.01876   0.0559   0.3562   0.6475
   8.000   0.4461   0.02658   0.01921   0.0553   0.3506   0.6636
   8.500   0.4708   0.02802   0.02087   0.0572   0.3458   0.6812
   9.000   0.4994   0.02941   0.02238   0.0583   0.3404   0.6991
   9.500   0.5398   0.03034   0.02332   0.0584   0.3356   0.7185
  10.000   0.5704   0.03182   0.02495   0.0593   0.3306   0.7388
  10.500   0.5928   0.03380   0.02708   0.0605   0.3253   0.7596
  11.000   0.6252   0.03529   0.02865   0.0609   0.3206   0.7822
  11.500   0.6623   0.03653   0.02999   0.0611   0.3158   0.8060
  12.000   0.6719   0.03955   0.03324   0.0629   0.3106   0.8296
  12.500   0.7003   0.04142   0.03519   0.0635   0.3059   0.8540
  13.000   0.7404   0.04245   0.03622   0.0636   0.3013   0.8790
  13.500   0.7346   0.04673   0.04079   0.0663   0.2961   0.9036
  14.000   0.7545   0.04935   0.04348   0.0674   0.2913   0.9260
  14.500   0.7979   0.05051   0.04456   0.0669   0.2870   0.9449
  15.000   0.7839   0.05646   0.05074   0.0683   0.2813   0.9634
  15.500   0.8319   0.05947   0.05372   0.0637   0.2766   0.9708
  16.000   0.8706   0.06345   0.05773   0.0590   0.2717   0.9773
  16.500   0.8790   0.06977   0.06417   0.0559   0.2657   0.9847
  17.000   0.9452   0.07151   0.06580   0.0498   0.2618   0.9878
  17.500   0.9311   0.08058   0.07511   0.0460   0.2550   0.9907
  18.000   0.9791   0.08396   0.07845   0.0403   0.2505   0.9941
  18.500   0.9872   0.09094   0.08555   0.0359   0.2449   0.9976
  19.000   0.9963   0.09740   0.09208   0.0321   0.2392   1.0000
  19.500   1.0257   0.09620   0.09072   0.0345   0.2366   1.0000
