  
       XFOIL         Version 6.99
  
 Calculated polar for: NACA 6710                                       
  
 1 1 Reynolds number fixed          Mach number fixed         
  
 xtrf =   1.000 (top)        1.000 (bottom)  
 Mach =   0.000     Re =     0.400 e 6     Ncrit =   9.000
  
   alpha    CL        CD       CDp       CM     Top_Xtr  Bot_Xtr
  ------ -------- --------- --------- -------- -------- --------
   0.500   0.7547   0.02337   0.01854  -0.2108   0.8955   0.5808
   1.000   0.8320   0.02284   0.01816  -0.2147   0.8928   0.6281
   1.500   0.8779   0.02273   0.01817  -0.2124   0.8826   0.6620
   2.000   0.9610   0.02160   0.01716  -0.2170   0.8804   0.6930
   2.500   1.0114   0.02111   0.01680  -0.2153   0.8693   0.7159
   3.000   1.1104   0.01835   0.01419  -0.2222   0.8664   0.7404
   3.500   1.1946   0.01471   0.01070  -0.2254   0.8531   0.7606
   4.500   1.3066   0.01157   0.00699  -0.2217   0.6642   0.7987
   5.000   1.3068   0.01383   0.00857  -0.2103   0.5387   0.8165
   5.500   1.3151   0.01593   0.01015  -0.2013   0.4248   0.8380
   6.000   1.3282   0.01808   0.01170  -0.1935   0.2929   0.8756
   6.500   1.3435   0.02027   0.01318  -0.1865   0.1611   1.0000
   7.000   1.3701   0.02248   0.01485  -0.1818   0.0800   1.0000
   7.500   1.4012   0.02427   0.01650  -0.1777   0.0538   1.0000
   8.000   1.4324   0.02604   0.01827  -0.1737   0.0425   1.0000
   8.500   1.4609   0.02794   0.02024  -0.1692   0.0357   1.0000
   9.000   1.4822   0.03044   0.02280  -0.1637   0.0312   1.0000
   9.500   1.5109   0.03228   0.02478  -0.1596   0.0279   1.0000
  10.000   1.5263   0.03539   0.02797  -0.1536   0.0250   1.0000
  10.500   1.5514   0.03764   0.03042  -0.1492   0.0234   1.0000
  11.000   1.5733   0.04019   0.03313  -0.1445   0.0216   1.0000
  11.500   1.5897   0.04395   0.03698  -0.1393   0.0198   1.0000
  12.000   1.6093   0.04675   0.04007  -0.1347   0.0188   1.0000
  12.500   1.6258   0.05017   0.04377  -0.1300   0.0178   1.0000
  13.000   1.6376   0.05392   0.04776  -0.1252   0.0169   1.0000
  13.500   1.6457   0.05816   0.05221  -0.1205   0.0162   1.0000
  14.000   1.6444   0.06486   0.05928  -0.1153   0.0155   1.0000
  14.500   1.6307   0.07094   0.06585  -0.1102   0.0151   1.0000
  15.000   1.6112   0.07858   0.07397  -0.1064   0.0147   1.0000
  15.500   1.5838   0.08805   0.08393  -0.1043   0.0144   1.0000
  16.000   1.5492   0.09979   0.09616  -0.1051   0.0143   1.0000
  16.500   1.5084   0.11421   0.11107  -0.1099   0.0143   1.0000
  17.000   1.4622   0.13190   0.12924  -0.1195   0.0144   1.0000
  17.500   1.4101   0.15436   0.15213  -0.1352   0.0147   1.0000
  18.000   1.3385   0.18896   0.18710  -0.1615   0.0154   1.0000
  19.000   0.8981   0.22412   0.22244  -0.1419   0.0259   1.0000
  19.500   0.9029   0.23089   0.22921  -0.1427   0.0250   1.0000
  20.000   0.8908   0.24252   0.24084  -0.1492   0.0232   1.0000
   0.500   0.7547   0.02337   0.01854  -0.2108   0.8955   0.5808
   1.000   0.8320   0.02284   0.01816  -0.2147   0.8928   0.6281
   1.500   0.8779   0.02273   0.01817  -0.2124   0.8826   0.6620
   2.000   0.9610   0.02160   0.01716  -0.2170   0.8804   0.6930
   2.500   1.0114   0.02111   0.01680  -0.2153   0.8693   0.7159
   3.000   1.1104   0.01835   0.01419  -0.2222   0.8664   0.7404
   3.500   1.1946   0.01471   0.01070  -0.2254   0.8531   0.7606
   4.500   1.3066   0.01157   0.00699  -0.2217   0.6642   0.7987
   5.000   1.3068   0.01383   0.00857  -0.2103   0.5387   0.8165
   5.500   1.3151   0.01593   0.01015  -0.2013   0.4248   0.8380
   6.000   1.3282   0.01808   0.01170  -0.1935   0.2929   0.8756
   6.500   1.3435   0.02027   0.01318  -0.1865   0.1611   1.0000
   7.000   1.3701   0.02248   0.01485  -0.1818   0.0800   1.0000
   7.500   1.4012   0.02427   0.01650  -0.1777   0.0538   1.0000
   8.000   1.4324   0.02604   0.01827  -0.1737   0.0425   1.0000
   8.500   1.4609   0.02794   0.02024  -0.1692   0.0357   1.0000
   9.000   1.4822   0.03044   0.02280  -0.1637   0.0312   1.0000
   9.500   1.5109   0.03228   0.02478  -0.1596   0.0279   1.0000
  10.000   1.5263   0.03539   0.02797  -0.1536   0.0250   1.0000
  10.500   1.5514   0.03764   0.03042  -0.1492   0.0234   1.0000
  11.000   1.5733   0.04019   0.03313  -0.1445   0.0216   1.0000
  11.500   1.5897   0.04395   0.03698  -0.1393   0.0198   1.0000
  12.000   1.6093   0.04675   0.04007  -0.1347   0.0188   1.0000
  12.500   1.6258   0.05017   0.04377  -0.1300   0.0178   1.0000
  13.000   1.6376   0.05392   0.04776  -0.1252   0.0169   1.0000
  13.500   1.6457   0.05816   0.05221  -0.1205   0.0162   1.0000
  14.000   1.6444   0.06486   0.05928  -0.1153   0.0155   1.0000
  14.500   1.6307   0.07094   0.06585  -0.1102   0.0151   1.0000
  15.000   1.6112   0.07858   0.07397  -0.1064   0.0147   1.0000
  15.500   1.5838   0.08805   0.08393  -0.1043   0.0144   1.0000
  16.000   1.5492   0.09979   0.09616  -0.1051   0.0143   1.0000
  16.500   1.5084   0.11421   0.11107  -0.1099   0.0143   1.0000
  17.000   1.4622   0.13190   0.12924  -0.1195   0.0144   1.0000
  17.500   1.4101   0.15436   0.15213  -0.1352   0.0147   1.0000
  18.000   1.3385   0.18896   0.18710  -0.1615   0.0154   1.0000
  19.000   0.8981   0.22412   0.22244  -0.1419   0.0259   1.0000
  19.500   0.9029   0.23089   0.22921  -0.1427   0.0250   1.0000
  20.000   0.8908   0.24252   0.24084  -0.1492   0.0232   1.0000
