  
       XFOIL         Version 6.99
  
 Calculated polar for: NACA 6028                                       
  
 1 1 Reynolds number fixed          Mach number fixed         
  
 xtrf =   1.000 (top)        1.000 (bottom)  
 Mach =   0.000     Re =     0.400 e 6     Ncrit =   9.000
  
   alpha    CL        CD       CDp       CM     Top_Xtr  Bot_Xtr
  ------ -------- --------- --------- -------- -------- --------
   0.000   0.4297   0.01346   0.00653  -0.0081   0.4402   0.6312
   0.500   0.4710   0.01377   0.00683  -0.0057   0.4269   0.6550
   1.000   0.5134   0.01403   0.00722  -0.0036   0.4145   0.6802
   1.500   0.5549   0.01442   0.00764  -0.0015   0.4021   0.7070
   2.000   0.5955   0.01480   0.00813   0.0006   0.3898   0.7358
   2.500   0.6363   0.01525   0.00869   0.0026   0.3782   0.7661
   3.000   0.6741   0.01583   0.00932   0.0049   0.3663   0.7986
   3.500   0.7129   0.01639   0.01003   0.0071   0.3553   0.8327
   4.000   0.7476   0.01715   0.01084   0.0098   0.3443   0.8672
   4.500   0.7807   0.01794   0.01177   0.0128   0.3337   0.9029
   5.000   0.8136   0.01893   0.01279   0.0157   0.3236   0.9369
   5.500   0.8577   0.02019   0.01404   0.0157   0.3126   0.9628
   6.000   0.9165   0.02159   0.01546   0.0123   0.3015   0.9792
   6.500   0.9787   0.02330   0.01709   0.0076   0.2903   0.9899
   7.000   1.0432   0.02506   0.01884   0.0019   0.2791   0.9962
   7.500   1.0764   0.02655   0.02034   0.0020   0.2700   1.0002
   8.000   1.0735   0.02784   0.02158   0.0087   0.2624   1.0002
   8.500   1.0845   0.02941   0.02316   0.0128   0.2546   1.0002
   9.000   1.0988   0.03144   0.02514   0.0155   0.2465   1.0002
   9.500   1.1185   0.03364   0.02739   0.0171   0.2387   1.0002
  10.000   1.1358   0.03622   0.02991   0.0184   0.2308   1.0002
  10.500   1.1554   0.03892   0.03270   0.0191   0.2233   1.0002
  11.000   1.1720   0.04188   0.03558   0.0198   0.2158   1.0002
  11.500   1.1886   0.04517   0.03900   0.0199   0.2088   1.0002
  12.000   1.2030   0.04855   0.04230   0.0202   0.2018   1.0002
  12.500   1.2153   0.05251   0.04640   0.0200   0.1952   1.0002
  13.000   1.2277   0.05626   0.05009   0.0199   0.1887   1.0002
  13.500   1.2361   0.06082   0.05480   0.0192   0.1825   1.0002
  14.000   1.2480   0.06477   0.05869   0.0187   0.1764   1.0002
  14.500   1.2523   0.06993   0.06400   0.0177   0.1707   1.0002
  15.000   1.2627   0.07417   0.06818   0.0169   0.1650   1.0002
  15.500   1.2623   0.08003   0.07422   0.0155   0.1596   1.0002
  16.000   1.2746   0.08410   0.07822   0.0143   0.1543   1.0002
  16.500   1.2698   0.09065   0.08496   0.0125   0.1493   1.0002
  17.000   1.2795   0.09520   0.08946   0.0109   0.1445   1.0002
  17.500   1.2753   0.10168   0.09611   0.0088   0.1397   1.0002
  18.000   1.2821   0.10672   0.10114   0.0066   0.1352   1.0002
  18.500   1.2821   0.11269   0.10723   0.0042   0.1309   1.0002
  19.000   1.2840   0.11846   0.11305   0.0015   0.1266   1.0002
  19.500   1.2887   0.12381   0.11845  -0.0013   0.1226   1.0002
  20.000   1.2871   0.13017   0.12492  -0.0046   0.1185   1.0002
   0.000   0.4297   0.01346   0.00653  -0.0081   0.4402   0.6312
   0.500   0.4710   0.01377   0.00683  -0.0057   0.4269   0.6550
   1.000   0.5134   0.01403   0.00722  -0.0036   0.4145   0.6802
   1.500   0.5549   0.01442   0.00764  -0.0015   0.4021   0.7070
   2.000   0.5955   0.01480   0.00813   0.0006   0.3898   0.7358
   2.500   0.6363   0.01525   0.00869   0.0026   0.3782   0.7661
   3.000   0.6741   0.01583   0.00932   0.0049   0.3663   0.7986
   3.500   0.7129   0.01639   0.01003   0.0071   0.3553   0.8327
   4.000   0.7476   0.01715   0.01084   0.0098   0.3443   0.8672
   4.500   0.7807   0.01794   0.01177   0.0128   0.3337   0.9029
   5.000   0.8136   0.01893   0.01279   0.0157   0.3236   0.9369
   5.500   0.8577   0.02019   0.01404   0.0157   0.3126   0.9628
   6.000   0.9165   0.02159   0.01546   0.0123   0.3015   0.9792
   6.500   0.9787   0.02330   0.01709   0.0076   0.2903   0.9899
   7.000   1.0432   0.02506   0.01884   0.0019   0.2791   0.9962
   7.500   1.0764   0.02655   0.02034   0.0020   0.2700   1.0002
   8.000   1.0735   0.02784   0.02158   0.0087   0.2624   1.0002
   8.500   1.0845   0.02941   0.02316   0.0128   0.2546   1.0002
   9.000   1.0988   0.03144   0.02514   0.0155   0.2465   1.0002
   9.500   1.1185   0.03364   0.02739   0.0171   0.2387   1.0002
  10.000   1.1358   0.03622   0.02991   0.0184   0.2308   1.0002
  10.500   1.1554   0.03892   0.03270   0.0191   0.2233   1.0002
  11.000   1.1720   0.04188   0.03558   0.0198   0.2158   1.0002
  11.500   1.1886   0.04517   0.03900   0.0199   0.2088   1.0002
  12.000   1.2030   0.04855   0.04230   0.0202   0.2018   1.0002
  12.500   1.2153   0.05251   0.04640   0.0200   0.1952   1.0002
  13.000   1.2277   0.05626   0.05009   0.0199   0.1887   1.0002
  13.500   1.2361   0.06082   0.05480   0.0192   0.1825   1.0002
  14.000   1.2480   0.06477   0.05869   0.0187   0.1764   1.0002
  14.500   1.2523   0.06993   0.06400   0.0177   0.1707   1.0002
  15.000   1.2627   0.07417   0.06818   0.0169   0.1650   1.0002
  15.500   1.2623   0.08003   0.07422   0.0155   0.1596   1.0002
  16.000   1.2746   0.08410   0.07822   0.0143   0.1543   1.0002
  16.500   1.2698   0.09065   0.08496   0.0125   0.1493   1.0002
  17.000   1.2795   0.09520   0.08946   0.0109   0.1445   1.0002
  17.500   1.2753   0.10168   0.09611   0.0088   0.1397   1.0002
  18.000   1.2821   0.10672   0.10114   0.0066   0.1352   1.0002
  18.500   1.2821   0.11269   0.10723   0.0042   0.1309   1.0002
  19.000   1.2840   0.11846   0.11305   0.0015   0.1266   1.0002
  19.500   1.2887   0.12381   0.11845  -0.0013   0.1226   1.0002
  20.000   1.2871   0.13017   0.12492  -0.0046   0.1185   1.0002
   0.000   0.4297   0.01346   0.00653  -0.0081   0.4402   0.6312
   0.500   0.4710   0.01377   0.00683  -0.0057   0.4269   0.6550
   1.000   0.5134   0.01403   0.00722  -0.0036   0.4145   0.6802
   1.500   0.5549   0.01442   0.00764  -0.0015   0.4021   0.7070
   2.000   0.5955   0.01480   0.00813   0.0006   0.3898   0.7358
   2.500   0.6363   0.01525   0.00869   0.0026   0.3782   0.7661
   3.000   0.6741   0.01583   0.00932   0.0049   0.3663   0.7986
   3.500   0.7129   0.01639   0.01003   0.0071   0.3553   0.8327
   4.000   0.7476   0.01715   0.01084   0.0098   0.3443   0.8672
   4.500   0.7807   0.01794   0.01177   0.0128   0.3337   0.9029
   5.000   0.8136   0.01893   0.01279   0.0157   0.3236   0.9369
   5.500   0.8577   0.02019   0.01404   0.0157   0.3126   0.9628
   6.000   0.9165   0.02159   0.01546   0.0123   0.3015   0.9792
   6.500   0.9787   0.02330   0.01709   0.0076   0.2903   0.9899
   7.000   1.0432   0.02506   0.01884   0.0019   0.2791   0.9962
   7.500   1.0764   0.02655   0.02034   0.0020   0.2700   1.0002
   8.000   1.0735   0.02784   0.02158   0.0087   0.2624   1.0002
   8.500   1.0845   0.02941   0.02316   0.0128   0.2546   1.0002
   9.000   1.0988   0.03144   0.02514   0.0155   0.2465   1.0002
   9.500   1.1185   0.03364   0.02739   0.0171   0.2387   1.0002
  10.000   1.1358   0.03622   0.02991   0.0184   0.2308   1.0002
  10.500   1.1554   0.03892   0.03270   0.0191   0.2233   1.0002
  11.000   1.1720   0.04188   0.03558   0.0198   0.2158   1.0002
  11.500   1.1886   0.04517   0.03900   0.0199   0.2088   1.0002
  12.000   1.2030   0.04855   0.04230   0.0202   0.2018   1.0002
  12.500   1.2153   0.05251   0.04640   0.0200   0.1952   1.0002
  13.000   1.2277   0.05626   0.05009   0.0199   0.1887   1.0002
  13.500   1.2361   0.06082   0.05480   0.0192   0.1825   1.0002
  14.000   1.2480   0.06477   0.05869   0.0187   0.1764   1.0002
  14.500   1.2523   0.06993   0.06400   0.0177   0.1707   1.0002
  15.000   1.2627   0.07417   0.06818   0.0169   0.1650   1.0002
  15.500   1.2623   0.08003   0.07422   0.0155   0.1596   1.0002
  16.000   1.2746   0.08410   0.07822   0.0143   0.1543   1.0002
  16.500   1.2698   0.09065   0.08496   0.0125   0.1493   1.0002
  17.000   1.2795   0.09520   0.08946   0.0109   0.1445   1.0002
  17.500   1.2753   0.10168   0.09611   0.0088   0.1397   1.0002
  18.000   1.2821   0.10672   0.10114   0.0066   0.1352   1.0002
  18.500   1.2821   0.11269   0.10723   0.0042   0.1309   1.0002
  19.000   1.2840   0.11846   0.11305   0.0015   0.1266   1.0002
  19.500   1.2887   0.12381   0.11845  -0.0013   0.1226   1.0002
  20.000   1.2871   0.13017   0.12492  -0.0046   0.1185   1.0002
