  
       XFOIL         Version 6.99
  
 Calculated polar for: NACA 4305                                       
  
 1 1 Reynolds number fixed          Mach number fixed         
  
 xtrf =   1.000 (top)        1.000 (bottom)  
 Mach =   0.000     Re =     0.400 e 6     Ncrit =   9.000
  
   alpha    CL        CD       CDp       CM     Top_Xtr  Bot_Xtr
  ------ -------- --------- --------- -------- -------- --------
   0.650   0.5000   0.00580   0.00137  -0.0878   0.7722   1.0000
