  
       XFOIL         Version 6.99
  
 Calculated polar for: NACA 3729                                       
  
 1 1 Reynolds number fixed          Mach number fixed         
  
 xtrf =   1.000 (top)        1.000 (bottom)  
 Mach =   0.000     Re =     0.400 e 6     Ncrit =   9.000
  
   alpha    CL        CD       CDp       CM     Top_Xtr  Bot_Xtr
  ------ -------- --------- --------- -------- -------- --------
  -0.798   0.2000   0.01332   0.00628  -0.0826   0.6092   0.4222
