  
       XFOIL         Version 6.99
  
 Calculated polar for: NACA 3409                                       
  
 1 1 Reynolds number fixed          Mach number fixed         
  
 xtrf =   1.000 (top)        1.000 (bottom)  
 Mach =   0.000     Re =     0.400 e 6     Ncrit =   9.000
  
   alpha    CL        CD       CDp       CM     Top_Xtr  Bot_Xtr
  ------ -------- --------- --------- -------- -------- --------
  -1.493   0.2000   0.00779   0.00229  -0.0835   0.8866   0.3786
