  
       XFOIL         Version 6.99
  
 Calculated polar for: NACA 2506                                       
  
 1 1 Reynolds number fixed          Mach number fixed         
  
 xtrf =   1.000 (top)        1.000 (bottom)  
 Mach =   0.000     Re =     0.400 e 6     Ncrit =   9.000
  
   alpha    CL        CD       CDp       CM     Top_Xtr  Bot_Xtr
  ------ -------- --------- --------- -------- -------- --------
   2.136   0.5000   0.00576   0.00167  -0.0636   0.8142   1.0000
