  
       XFOIL         Version 6.99
  
 Calculated polar for: NACA 3411                                       
  
 1 1 Reynolds number fixed          Mach number fixed         
  
 xtrf =   1.000 (top)        1.000 (bottom)  
 Mach =   0.000     Re =     0.400 e 6     Ncrit =   9.000
  
   alpha    CL        CD       CDp       CM     Top_Xtr  Bot_Xtr
  ------ -------- --------- --------- -------- -------- --------
  -1.471   0.2000   0.00803   0.00239  -0.0816   0.8337   0.4125
