  
       XFOIL         Version 6.99
  
 Calculated polar for: NACA 3125                                       
  
 1 1 Reynolds number fixed          Mach number fixed         
  
 xtrf =   1.000 (top)        1.000 (bottom)  
 Mach =   0.000     Re =     0.400 e 6     Ncrit =   9.000
  
   alpha    CL        CD       CDp       CM     Top_Xtr  Bot_Xtr
  ------ -------- --------- --------- -------- -------- --------
  -0.518   0.2000   0.01181   0.00508  -0.0242   0.5001   0.5607
