  
       XFOIL         Version 6.99
  
 Calculated polar for: NACA 3505                                       
  
 1 1 Reynolds number fixed          Mach number fixed         
  
 xtrf =   1.000 (top)        1.000 (bottom)  
 Mach =   0.000     Re =     0.400 e 6     Ncrit =   9.000
  
   alpha    CL        CD       CDp       CM     Top_Xtr  Bot_Xtr
  ------ -------- --------- --------- -------- -------- --------
   0.965   0.5000   0.00591   0.00190  -0.0983   0.9174   1.0000
