  
       XFOIL         Version 6.99
  
 Calculated polar for: NACA 1412                                       
  
 1 1 Reynolds number fixed          Mach number fixed         
  
 xtrf =   1.000 (top)        1.000 (bottom)  
 Mach =   0.000     Re =     0.400 e 6     Ncrit =   9.000
  
   alpha    CL        CD       CDp       CM     Top_Xtr  Bot_Xtr
  ------ -------- --------- --------- -------- -------- --------
   0.812   0.2000   0.00698   0.00254  -0.0220   0.7238   0.9302
