  
       XFOIL         Version 6.99
  
 Calculated polar for: NACA 3223                                       
  
 1 1 Reynolds number fixed          Mach number fixed         
  
 xtrf =   1.000 (top)        1.000 (bottom)  
 Mach =   0.000     Re =     0.400 e 6     Ncrit =   9.000
  
   alpha    CL        CD       CDp       CM     Top_Xtr  Bot_Xtr
  ------ -------- --------- --------- -------- -------- --------
   2.791   0.5000   0.01259   0.00592  -0.0217   0.3532   0.8223
