  
       XFOIL         Version 6.99
  
 Calculated polar for: NACA 2618                                       
  
 1 1 Reynolds number fixed          Mach number fixed         
  
 xtrf =   1.000 (top)        1.000 (bottom)  
 Mach =   0.000     Re =     0.400 e 6     Ncrit =   9.000
  
   alpha    CL        CD       CDp       CM     Top_Xtr  Bot_Xtr
  ------ -------- --------- --------- -------- -------- --------
   2.084   0.5000   0.00944   0.00363  -0.0661   0.5986   0.7010
