  
       XFOIL         Version 6.99
  
 Calculated polar for: NACA 2520                                       
  
 1 1 Reynolds number fixed          Mach number fixed         
  
 xtrf =   1.000 (top)        1.000 (bottom)  
 Mach =   0.000     Re =     0.400 e 6     Ncrit =   9.000
  
   alpha    CL        CD       CDp       CM     Top_Xtr  Bot_Xtr
  ------ -------- --------- --------- -------- -------- --------
   2.435   0.5000   0.01011   0.00417  -0.0525   0.5464   0.7425
