  
       XFOIL         Version 6.99
  
 Calculated polar for: NACA 9230                                       
  
 1 1 Reynolds number fixed          Mach number fixed         
  
 xtrf =   1.000 (top)        1.000 (bottom)  
 Mach =   0.000     Re =     0.400 e 6     Ncrit =   9.000
  
   alpha    CL        CD       CDp       CM     Top_Xtr  Bot_Xtr
  ------ -------- --------- --------- -------- -------- --------
   0.762   0.5000   0.03162   0.02224  -0.0532   0.2807   0.0726
