  
       XFOIL         Version 6.99
  
 Calculated polar for: NACA 1609                                       
  
 1 1 Reynolds number fixed          Mach number fixed         
  
 xtrf =   1.000 (top)        1.000 (bottom)  
 Mach =   0.000     Re =     0.400 e 6     Ncrit =   9.000
  
   alpha    CL        CD       CDp       CM     Top_Xtr  Bot_Xtr
  ------ -------- --------- --------- -------- -------- --------
   3.106   0.5000   0.00739   0.00227  -0.0370   0.5314   1.0000
