  
       XFOIL         Version 6.99
  
 Calculated polar for: NACA 6617                                       
  
 1 1 Reynolds number fixed          Mach number fixed         
  
 xtrf =   1.000 (top)        1.000 (bottom)  
 Mach =   0.000     Re =     0.400 e 6     Ncrit =   9.000
  
   alpha    CL        CD       CDp       CM     Top_Xtr  Bot_Xtr
  ------ -------- --------- --------- -------- -------- --------
  -5.004   0.2000   0.01494   0.00858  -0.1958   0.8634   0.1482
