  
       XFOIL         Version 6.99
  
 Calculated polar for: NACA 3616                                       
  
 1 1 Reynolds number fixed          Mach number fixed         
  
 xtrf =   1.000 (top)        1.000 (bottom)  
 Mach =   0.000     Re =     0.400 e 6     Ncrit =   9.000
  
   alpha    CL        CD       CDp       CM     Top_Xtr  Bot_Xtr
  ------ -------- --------- --------- -------- -------- --------
   0.631   0.5000   0.00879   0.00346  -0.1080   0.7724   0.6104
