  
       XFOIL         Version 6.99
  
 Calculated polar for: NACA 2408                                       
  
 1 1 Reynolds number fixed          Mach number fixed         
  
 xtrf =   1.000 (top)        1.000 (bottom)  
 Mach =   0.000     Re =     0.400 e 6     Ncrit =   9.000
  
   alpha    CL        CD       CDp       CM     Top_Xtr  Bot_Xtr
  ------ -------- --------- --------- -------- -------- --------
   2.279   0.5000   0.00653   0.00180  -0.0539   0.6874   1.0000
