  
       XFOIL         Version 6.99
  
 Calculated polar for: NACA 1613                                       
  
 1 1 Reynolds number fixed          Mach number fixed         
  
 xtrf =   1.000 (top)        1.000 (bottom)  
 Mach =   0.000     Re =     0.400 e 6     Ncrit =   9.000
  
   alpha    CL        CD       CDp       CM     Top_Xtr  Bot_Xtr
  ------ -------- --------- --------- -------- -------- --------
   3.057   0.5000   0.00838   0.00323  -0.0360   0.5338   0.9829
