  
       XFOIL         Version 6.99
  
 Calculated polar for: NACA 1421                                       
  
 1 1 Reynolds number fixed          Mach number fixed         
  
 xtrf =   1.000 (top)        1.000 (bottom)  
 Mach =   0.000     Re =     0.400 e 6     Ncrit =   9.000
  
   alpha    CL        CD       CDp       CM     Top_Xtr  Bot_Xtr
  ------ -------- --------- --------- -------- -------- --------
   3.834   0.5000   0.01099   0.00498  -0.0132   0.4445   0.8420
