  
       XFOIL         Version 6.99
  
 Calculated polar for: NACA 2313                                       
  
 1 1 Reynolds number fixed          Mach number fixed         
  
 xtrf =   1.000 (top)        1.000 (bottom)  
 Mach =   0.000     Re =     0.400 e 6     Ncrit =   9.000
  
   alpha    CL        CD       CDp       CM     Top_Xtr  Bot_Xtr
  ------ -------- --------- --------- -------- -------- --------
  -0.066   0.2000   0.00724   0.00254  -0.0393   0.6914   0.8668
