  
       XFOIL         Version 6.99
  
 Calculated polar for: NACA 7017                                       
  
 1 1 Reynolds number fixed          Mach number fixed         
  
 xtrf =   1.000 (top)        1.000 (bottom)  
 Mach =   0.000     Re =     0.400 e 6     Ncrit =   9.000
  
   alpha    CL        CD       CDp       CM     Top_Xtr  Bot_Xtr
  ------ -------- --------- --------- -------- -------- --------
  -4.201   0.2000   0.00883   0.00306  -0.0488   0.6987   0.6034
