  
       XFOIL         Version 6.99
  
 Calculated polar for: NACA 3406                                       
  
 1 1 Reynolds number fixed          Mach number fixed         
  
 xtrf =   1.000 (top)        1.000 (bottom)  
 Mach =   0.000     Re =     0.400 e 6     Ncrit =   9.000
  
   alpha    CL        CD       CDp       CM     Top_Xtr  Bot_Xtr
  ------ -------- --------- --------- -------- -------- --------
   1.304   0.5000   0.00581   0.00148  -0.0804   0.8175   1.0000
