  
       XFOIL         Version 6.99
  
 Calculated polar for: NACA 1410                                       
  
 1 1 Reynolds number fixed          Mach number fixed         
  
 xtrf =   1.000 (top)        1.000 (bottom)  
 Mach =   0.000     Re =     0.400 e 6     Ncrit =   9.000
  
   alpha    CL        CD       CDp       CM     Top_Xtr  Bot_Xtr
  ------ -------- --------- --------- -------- -------- --------
   0.579   0.2000   0.00638   0.00233  -0.0281   0.8115   0.9754
