  
       XFOIL         Version 6.99
  
 Calculated polar for: NACA 7915                                       
  
 1 1 Reynolds number fixed          Mach number fixed         
  
 xtrf =   1.000 (top)        1.000 (bottom)  
 Mach =   0.000     Re =     0.400 e 6     Ncrit =   9.000
  
   alpha    CL        CD       CDp       CM     Top_Xtr  Bot_Xtr
  ------ -------- --------- --------- -------- -------- --------
  -2.719   0.2000   0.03224   0.02699  -0.1949   0.9170   0.2356
