  
       XFOIL         Version 6.99
  
 Calculated polar for: NACA 6130                                       
  
 1 1 Reynolds number fixed          Mach number fixed         
  
 xtrf =   1.000 (top)        1.000 (bottom)  
 Mach =   0.000     Re =     0.400 e 6     Ncrit =   9.000
  
   alpha    CL        CD       CDp       CM     Top_Xtr  Bot_Xtr
  ------ -------- --------- --------- -------- -------- --------
   1.240   0.5000   0.02075   0.01191  -0.0189   0.3786   0.0595
