  
       XFOIL         Version 6.99
  
 Calculated polar for: NACA 2311                                       
  
 1 1 Reynolds number fixed          Mach number fixed         
  
 xtrf =   1.000 (top)        1.000 (bottom)  
 Mach =   0.000     Re =     0.400 e 6     Ncrit =   9.000
  
   alpha    CL        CD       CDp       CM     Top_Xtr  Bot_Xtr
  ------ -------- --------- --------- -------- -------- --------
  -0.112   0.2000   0.00661   0.00234  -0.0405   0.7569   0.9407
