  
       XFOIL         Version 6.99
  
 Calculated polar for: NACA 7232                                       
  
 1 1 Reynolds number fixed          Mach number fixed         
  
 xtrf =   1.000 (top)        1.000 (bottom)  
 Mach =   0.000     Re =     0.400 e 6     Ncrit =   9.000
  
   alpha    CL        CD       CDp       CM     Top_Xtr  Bot_Xtr
  ------ -------- --------- --------- -------- -------- --------
   2.741   0.5000   0.02929   0.01987  -0.0225   0.2906   0.1590
