  
       XFOIL         Version 6.99
  
 Calculated polar for: NACA 1509                                       
  
 1 1 Reynolds number fixed          Mach number fixed         
  
 xtrf =   1.000 (top)        1.000 (bottom)  
 Mach =   0.000     Re =     0.400 e 6     Ncrit =   9.000
  
   alpha    CL        CD       CDp       CM     Top_Xtr  Bot_Xtr
  ------ -------- --------- --------- -------- -------- --------
   3.164   0.5000   0.00738   0.00227  -0.0332   0.5365   1.0000
