  
       XFOIL         Version 6.99
  
 Calculated polar for: NACA 4519                                       
  
 1 1 Reynolds number fixed          Mach number fixed         
  
 xtrf =   1.000 (top)        1.000 (bottom)  
 Mach =   0.000     Re =     0.400 e 6     Ncrit =   9.000
  
   alpha    CL        CD       CDp       CM     Top_Xtr  Bot_Xtr
  ------ -------- --------- --------- -------- -------- --------
  -0.029   0.5000   0.01031   0.00393  -0.1177   0.6785   0.4695
