  
       XFOIL         Version 6.99
  
 Calculated polar for: NACA 2207                                       
  
 1 1 Reynolds number fixed          Mach number fixed         
  
 xtrf =   1.000 (top)        1.000 (bottom)  
 Mach =   0.000     Re =     0.400 e 6     Ncrit =   9.000
  
   alpha    CL        CD       CDp       CM     Top_Xtr  Bot_Xtr
  ------ -------- --------- --------- -------- -------- --------
  -0.342   0.2000   0.00547   0.00181  -0.0437   0.9052   1.0000
