  
       XFOIL         Version 6.99
  
 Calculated polar for: NACA 2004                                       
  
 1 1 Reynolds number fixed          Mach number fixed         
  
 xtrf =   1.000 (top)        1.000 (bottom)  
 Mach =   0.000     Re =     0.400 e 6     Ncrit =   9.000
  
   alpha    CL        CD       CDp       CM     Top_Xtr  Bot_Xtr
  ------ -------- --------- --------- -------- -------- --------
   0.200   0.2000   0.00502   0.00125  -0.0138   0.9888   1.0000
