  
       XFOIL         Version 6.99
  
 Calculated polar for: NACA 2224                                       
  
 1 1 Reynolds number fixed          Mach number fixed         
  
 xtrf =   1.000 (top)        1.000 (bottom)  
 Mach =   0.000     Re =     0.400 e 6     Ncrit =   9.000
  
   alpha    CL        CD       CDp       CM     Top_Xtr  Bot_Xtr
  ------ -------- --------- --------- -------- -------- --------
   3.718   0.5000   0.01280   0.00610  -0.0059   0.3589   0.8065
