  
       XFOIL         Version 6.99
  
 Calculated polar for: NACA 2318                                       
  
 1 1 Reynolds number fixed          Mach number fixed         
  
 xtrf =   1.000 (top)        1.000 (bottom)  
 Mach =   0.000     Re =     0.400 e 6     Ncrit =   9.000
  
   alpha    CL        CD       CDp       CM     Top_Xtr  Bot_Xtr
  ------ -------- --------- --------- -------- -------- --------
   9.803   1.2000   0.01617   0.00979  -0.0208   0.2642   1.0000
