  
       XFOIL         Version 6.99
  
 Calculated polar for: NACA 1319                                       
  
 1 1 Reynolds number fixed          Mach number fixed         
  
 xtrf =   1.000 (top)        1.000 (bottom)  
 Mach =   0.000     Re =     0.400 e 6     Ncrit =   9.000
  
   alpha    CL        CD       CDp       CM     Top_Xtr  Bot_Xtr
  ------ -------- --------- --------- -------- -------- --------
  11.846   1.2000   0.02174   0.01511   0.0147   0.1587   1.0000
