  
       XFOIL         Version 6.99
  
 Calculated polar for: NACA 6413                                       
  
 1 1 Reynolds number fixed          Mach number fixed         
  
 xtrf =   1.000 (top)        1.000 (bottom)  
 Mach =   0.000     Re =     0.400 e 6     Ncrit =   9.000
  
   alpha    CL        CD       CDp       CM     Top_Xtr  Bot_Xtr
  ------ -------- --------- --------- -------- -------- --------
   2.949   1.0000   0.01028   0.00421  -0.1468   0.5413   1.0000
