  
       XFOIL         Version 6.99
  
 Calculated polar for: NACA 6710                                       
  
 1 1 Reynolds number fixed          Mach number fixed         
  
 xtrf =   1.000 (top)        1.000 (bottom)  
 Mach =   0.000     Re =     0.400 e 6     Ncrit =   9.000
  
   alpha    CL        CD       CDp       CM     Top_Xtr  Bot_Xtr
  ------ -------- --------- --------- -------- -------- --------
   2.443   1.0000   0.02134   0.01701  -0.2144   0.8696   0.7132
