  
       XFOIL         Version 6.99
  
 Calculated polar for: NACA 3313                                       
  
 1 1 Reynolds number fixed          Mach number fixed         
  
 xtrf =   1.000 (top)        1.000 (bottom)  
 Mach =   0.000     Re =     0.400 e 6     Ncrit =   9.000
  
   alpha    CL        CD       CDp       CM     Top_Xtr  Bot_Xtr
  ------ -------- --------- --------- -------- -------- --------
   6.188   1.0000   0.01194   0.00551  -0.0596   0.3657   1.0000
