  
       XFOIL         Version 6.99
  
 Calculated polar for: NACA 2311                                       
  
 1 1 Reynolds number fixed          Mach number fixed         
  
 xtrf =   1.000 (top)        1.000 (bottom)  
 Mach =   0.000     Re =     0.400 e 6     Ncrit =   9.000
  
   alpha    CL        CD       CDp       CM     Top_Xtr  Bot_Xtr
  ------ -------- --------- --------- -------- -------- --------
   7.242   1.0000   0.01237   0.00587  -0.0377   0.2090   1.0000
