  
       XFOIL         Version 6.99
  
 Calculated polar for: NACA 2425                                       
  
 1 1 Reynolds number fixed          Mach number fixed         
  
 xtrf =   1.000 (top)        1.000 (bottom)  
 Mach =   0.000     Re =     0.400 e 6     Ncrit =   9.000
  
   alpha    CL        CD       CDp       CM     Top_Xtr  Bot_Xtr
  ------ -------- --------- --------- -------- -------- --------
   8.163   1.0000   0.01739   0.01123  -0.0220   0.3533   0.9876
