  
       XFOIL         Version 6.99
  
 Calculated polar for: NACA 3326                                       
  
 1 1 Reynolds number fixed          Mach number fixed         
  
 xtrf =   1.000 (top)        1.000 (bottom)  
 Mach =   0.000     Re =     0.400 e 6     Ncrit =   9.000
  
   alpha    CL        CD       CDp       CM     Top_Xtr  Bot_Xtr
  ------ -------- --------- --------- -------- -------- --------
   7.596   1.0000   0.01874   0.01221  -0.0287   0.3554   0.9844
