  
       XFOIL         Version 6.99
  
 Calculated polar for: NACA 1409                                       
  
 1 1 Reynolds number fixed          Mach number fixed         
  
 xtrf =   1.000 (top)        1.000 (bottom)  
 Mach =   0.000     Re =     0.400 e 6     Ncrit =   9.000
  
   alpha    CL        CD       CDp       CM     Top_Xtr  Bot_Xtr
  ------ -------- --------- --------- -------- -------- --------
   8.690   1.0000   0.02233   0.01575  -0.0122   0.0225   1.0000
