  
       XFOIL         Version 6.99
  
 Calculated polar for: NACA 5414                                       
  
 1 1 Reynolds number fixed          Mach number fixed         
  
 xtrf =   1.000 (top)        1.000 (bottom)  
 Mach =   0.000     Re =     0.400 e 6     Ncrit =   9.000
  
   alpha    CL        CD       CDp       CM     Top_Xtr  Bot_Xtr
  ------ -------- --------- --------- -------- -------- --------
   3.932   1.0000   0.01069   0.00455  -0.1220   0.5154   1.0000
