  
       XFOIL         Version 6.99
  
 Calculated polar for: NACA 7512                                       
  
 1 1 Reynolds number fixed          Mach number fixed         
  
 xtrf =   1.000 (top)        1.000 (bottom)  
 Mach =   0.000     Re =     0.400 e 6     Ncrit =   9.000
  
   alpha    CL        CD       CDp       CM     Top_Xtr  Bot_Xtr
  ------ -------- --------- --------- -------- -------- --------
   1.043   1.0000   0.00981   0.00400  -0.2120   0.7380   0.5276
