  
       XFOIL         Version 6.99
  
 Calculated polar for: NACA 3414                                       
  
 1 1 Reynolds number fixed          Mach number fixed         
  
 xtrf =   1.000 (top)        1.000 (bottom)  
 Mach =   0.000     Re =     0.400 e 6     Ncrit =   9.000
  
   alpha    CL        CD       CDp       CM     Top_Xtr  Bot_Xtr
  ------ -------- --------- --------- -------- -------- --------
   5.948   1.0000   0.01105   0.00507  -0.0721   0.4240   1.0000
