  
       XFOIL         Version 6.99
  
 Calculated polar for: NACA 8713                                       
  
 1 1 Reynolds number fixed          Mach number fixed         
  
 xtrf =   1.000 (top)        1.000 (bottom)  
 Mach =   0.000     Re =     0.400 e 6     Ncrit =   9.000
  
   alpha    CL        CD       CDp       CM     Top_Xtr  Bot_Xtr
  ------ -------- --------- --------- -------- -------- --------
   1.588   1.0000   0.03366   0.02875  -0.2538   0.8386   0.5094
