  
       XFOIL         Version 6.99
  
 Calculated polar for: NACA 4727                                       
  
 1 1 Reynolds number fixed          Mach number fixed         
  
 xtrf =   1.000 (top)        1.000 (bottom)  
 Mach =   0.000     Re =     0.400 e 6     Ncrit =   9.000
  
   alpha    CL        CD       CDp       CM     Top_Xtr  Bot_Xtr
  ------ -------- --------- --------- -------- -------- --------
   6.676   1.0000   0.02015   0.01331  -0.0934   0.4222   0.6800
