  
       XFOIL         Version 6.99
  
 Calculated polar for: NACA 4517                                       
  
 1 1 Reynolds number fixed          Mach number fixed         
  
 xtrf =   1.000 (top)        1.000 (bottom)  
 Mach =   0.000     Re =     0.400 e 6     Ncrit =   9.000
  
   alpha    CL        CD       CDp       CM     Top_Xtr  Bot_Xtr
  ------ -------- --------- --------- -------- -------- --------
   4.681   1.0000   0.01068   0.00508  -0.1116   0.5332   1.0000
