  
       XFOIL         Version 6.99
  
 Calculated polar for: NACA 2216                                       
  
 1 1 Reynolds number fixed          Mach number fixed         
  
 xtrf =   1.000 (top)        1.000 (bottom)  
 Mach =   0.000     Re =     0.400 e 6     Ncrit =   9.000
  
   alpha    CL        CD       CDp       CM     Top_Xtr  Bot_Xtr
  ------ -------- --------- --------- -------- -------- --------
   7.080   1.0000   0.01434   0.00745  -0.0340   0.2682   1.0000
