  
       XFOIL         Version 6.99
  
 Calculated polar for: NACA 2210                                       
  
 1 1 Reynolds number fixed          Mach number fixed         
  
 xtrf =   1.000 (top)        1.000 (bottom)  
 Mach =   0.000     Re =     0.400 e 6     Ncrit =   9.000
  
   alpha    CL        CD       CDp       CM     Top_Xtr  Bot_Xtr
  ------ -------- --------- --------- -------- -------- --------
   7.358   1.0000   0.01269   0.00617  -0.0301   0.2186   1.0000
