  
       XFOIL         Version 6.99
  
 Calculated polar for: NACA 2331                                       
  
 1 1 Reynolds number fixed          Mach number fixed         
  
 xtrf =   1.000 (top)        1.000 (bottom)  
 Mach =   0.000     Re =     0.400 e 6     Ncrit =   9.000
  
   alpha    CL        CD       CDp       CM     Top_Xtr  Bot_Xtr
  ------ -------- --------- --------- -------- -------- --------
  10.650   1.0000   0.02705   0.02082   0.0168   0.3201   0.9801
