  
       XFOIL         Version 6.99
  
 Calculated polar for: NACA 7812                                       
  
 1 1 Reynolds number fixed          Mach number fixed         
  
 xtrf =   1.000 (top)        1.000 (bottom)  
 Mach =   0.000     Re =     0.400 e 6     Ncrit =   9.000
  
   alpha    CL        CD       CDp       CM     Top_Xtr  Bot_Xtr
  ------ -------- --------- --------- -------- -------- --------
   2.156   1.0000   0.03428   0.03007  -0.2445   0.8844   0.6305
