  
       XFOIL         Version 6.99
  
 Calculated polar for: NACA 2420                                       
  
 1 1 Reynolds number fixed          Mach number fixed         
  
 xtrf =   1.000 (top)        1.000 (bottom)  
 Mach =   0.000     Re =     0.400 e 6     Ncrit =   9.000
  
   alpha    CL        CD       CDp       CM     Top_Xtr  Bot_Xtr
  ------ -------- --------- --------- -------- -------- --------
   6.569   1.0000   0.01369   0.00757  -0.0538   0.3736   0.9936
