  
       XFOIL         Version 6.99
  
 Calculated polar for: NACA 5614                                       
  
 1 1 Reynolds number fixed          Mach number fixed         
  
 xtrf =   1.000 (top)        1.000 (bottom)  
 Mach =   0.000     Re =     0.400 e 6     Ncrit =   9.000
  
   alpha    CL        CD       CDp       CM     Top_Xtr  Bot_Xtr
  ------ -------- --------- --------- -------- -------- --------
   2.686   1.0000   0.00940   0.00454  -0.1774   0.7684   0.7193
