  
       XFOIL         Version 6.99
  
 Calculated polar for: NACA 1317                                       
  
 1 1 Reynolds number fixed          Mach number fixed         
  
 xtrf =   1.000 (top)        1.000 (bottom)  
 Mach =   0.000     Re =     0.400 e 6     Ncrit =   9.000
  
   alpha    CL        CD       CDp       CM     Top_Xtr  Bot_Xtr
  ------ -------- --------- --------- -------- -------- --------
   7.377   1.0000   0.01366   0.00727  -0.0327   0.2625   1.0000
