  
       XFOIL         Version 6.99
  
 Calculated polar for: NACA 3613                                       
  
 1 1 Reynolds number fixed          Mach number fixed         
  
 xtrf =   1.000 (top)        1.000 (bottom)  
 Mach =   0.000     Re =     0.400 e 6     Ncrit =   9.000
  
   alpha    CL        CD       CDp       CM     Top_Xtr  Bot_Xtr
  ------ -------- --------- --------- -------- -------- --------
   5.673   1.0000   0.01110   0.00517  -0.0938   0.3853   1.0000
