  
       XFOIL         Version 6.99
  
 Calculated polar for: NACA 5616                                       
  
 1 1 Reynolds number fixed          Mach number fixed         
  
 xtrf =   1.000 (top)        1.000 (bottom)  
 Mach =   0.000     Re =     0.400 e 6     Ncrit =   9.000
  
   alpha    CL        CD       CDp       CM     Top_Xtr  Bot_Xtr
  ------ -------- --------- --------- -------- -------- --------
   2.824   1.0000   0.00992   0.00472  -0.1726   0.7258   0.6771
