  
       XFOIL         Version 6.99
  
 Calculated polar for: NACA 3212                                       
  
 1 1 Reynolds number fixed          Mach number fixed         
  
 xtrf =   1.000 (top)        1.000 (bottom)  
 Mach =   0.000     Re =     0.400 e 6     Ncrit =   9.000
  
   alpha    CL        CD       CDp       CM     Top_Xtr  Bot_Xtr
  ------ -------- --------- --------- -------- -------- --------
   6.479   1.0000   0.01357   0.00648  -0.0457   0.2700   1.0000
