  
       XFOIL         Version 6.99
  
 Calculated polar for: NACA 1313                                       
  
 1 1 Reynolds number fixed          Mach number fixed         
  
 xtrf =   1.000 (top)        1.000 (bottom)  
 Mach =   0.000     Re =     0.400 e 6     Ncrit =   9.000
  
   alpha    CL        CD       CDp       CM     Top_Xtr  Bot_Xtr
  ------ -------- --------- --------- -------- -------- --------
   8.306   1.0000   0.01504   0.00803  -0.0148   0.1041   1.0000
