  
       XFOIL         Version 6.99
  
 Calculated polar for: NACA 2431                                       
  
 1 1 Reynolds number fixed          Mach number fixed         
  
 xtrf =   1.000 (top)        1.000 (bottom)  
 Mach =   0.000     Re =     0.400 e 6     Ncrit =   9.000
  
   alpha    CL        CD       CDp       CM     Top_Xtr  Bot_Xtr
  ------ -------- --------- --------- -------- -------- --------
  10.589   1.0000   0.02730   0.02124   0.0088   0.3293   0.9859
