  
       XFOIL         Version 6.99
  
 Calculated polar for: NACA 6711                                       
  
 1 1 Reynolds number fixed          Mach number fixed         
  
 xtrf =   1.000 (top)        1.000 (bottom)  
 Mach =   0.000     Re =     0.400 e 6     Ncrit =   9.000
  
   alpha    CL        CD       CDp       CM     Top_Xtr  Bot_Xtr
  ------ -------- --------- --------- -------- -------- --------
   2.319   1.0000   0.02056   0.01615  -0.2160   0.8659   0.6913
