  
       XFOIL         Version 6.99
  
 Calculated polar for: NACA 4811                                       
  
 1 1 Reynolds number fixed          Mach number fixed         
  
 xtrf =   1.000 (top)        1.000 (bottom)  
 Mach =   0.000     Re =     0.400 e 6     Ncrit =   9.000
  
   alpha    CL        CD       CDp       CM     Top_Xtr  Bot_Xtr
  ------ -------- --------- --------- -------- -------- --------
   3.404   1.0000   0.01104   0.00602  -0.1742   0.6244   0.8052
