  
       XFOIL         Version 6.99
  
 Calculated polar for: NACA 5513                                       
  
 1 1 Reynolds number fixed          Mach number fixed         
  
 xtrf =   1.000 (top)        1.000 (bottom)  
 Mach =   0.000     Re =     0.400 e 6     Ncrit =   9.000
  
   alpha    CL        CD       CDp       CM     Top_Xtr  Bot_Xtr
  ------ -------- --------- --------- -------- -------- --------
   3.337   1.0000   0.00902   0.00386  -0.1491   0.6521   1.0000
