  
       XFOIL         Version 6.99
  
 Calculated polar for: NACA 1510                                       
  
 1 1 Reynolds number fixed          Mach number fixed         
  
 xtrf =   1.000 (top)        1.000 (bottom)  
 Mach =   0.000     Re =     0.400 e 6     Ncrit =   9.000
  
   alpha    CL        CD       CDp       CM     Top_Xtr  Bot_Xtr
  ------ -------- --------- --------- -------- -------- --------
   8.572   1.0000   0.01987   0.01289  -0.0165   0.0298   1.0000
