  
       XFOIL         Version 6.99
  
 Calculated polar for: NACA 6811                                       
  
 1 1 Reynolds number fixed          Mach number fixed         
  
 xtrf =   1.000 (top)        1.000 (bottom)  
 Mach =   0.000     Re =     0.400 e 6     Ncrit =   9.000
  
   alpha    CL        CD       CDp       CM     Top_Xtr  Bot_Xtr
  ------ -------- --------- --------- -------- -------- --------
   2.568   1.0000   0.02714   0.02316  -0.2234   0.8936   0.7097
