  
       XFOIL         Version 6.99
  
 Calculated polar for: NACA 2220                                       
  
 1 1 Reynolds number fixed          Mach number fixed         
  
 xtrf =   1.000 (top)        1.000 (bottom)  
 Mach =   0.000     Re =     0.400 e 6     Ncrit =   9.000
  
   alpha    CL        CD       CDp       CM     Top_Xtr  Bot_Xtr
  ------ -------- --------- --------- -------- -------- --------
   7.008   1.0000   0.01602   0.00916  -0.0337   0.2795   0.9935
