  
       XFOIL         Version 6.99
  
 Calculated polar for: NACA 3412                                       
  
 1 1 Reynolds number fixed          Mach number fixed         
  
 xtrf =   1.000 (top)        1.000 (bottom)  
 Mach =   0.000     Re =     0.400 e 6     Ncrit =   9.000
  
   alpha    CL        CD       CDp       CM     Top_Xtr  Bot_Xtr
  ------ -------- --------- --------- -------- -------- --------
   5.980   1.0000   0.01063   0.00474  -0.0722   0.4097   1.0000
