  
       XFOIL         Version 6.99
  
 Calculated polar for: NACA 7714                                       
  
 1 1 Reynolds number fixed          Mach number fixed         
  
 xtrf =   1.000 (top)        1.000 (bottom)  
 Mach =   0.000     Re =     0.400 e 6     Ncrit =   9.000
  
   alpha    CL        CD       CDp       CM     Top_Xtr  Bot_Xtr
  ------ -------- --------- --------- -------- -------- --------
   2.077   1.0000   0.02574   0.02098  -0.2302   0.8275   0.5777
