  
       XFOIL         Version 6.99
  
 Calculated polar for: NACA 4513                                       
  
 1 1 Reynolds number fixed          Mach number fixed         
  
 xtrf =   1.000 (top)        1.000 (bottom)  
 Mach =   0.000     Re =     0.400 e 6     Ncrit =   9.000
  
   alpha    CL        CD       CDp       CM     Top_Xtr  Bot_Xtr
  ------ -------- --------- --------- -------- -------- --------
   4.522   1.0000   0.00940   0.00408  -0.1170   0.5708   1.0000
