  
       XFOIL         Version 6.99
  
 Calculated polar for: NACA 1212                                       
  
 1 1 Reynolds number fixed          Mach number fixed         
  
 xtrf =   1.000 (top)        1.000 (bottom)  
 Mach =   0.000     Re =     0.400 e 6     Ncrit =   9.000
  
   alpha    CL        CD       CDp       CM     Top_Xtr  Bot_Xtr
  ------ -------- --------- --------- -------- -------- --------
   8.310   1.0000   0.01461   0.00769  -0.0120   0.1056   1.0000
