  
       XFOIL         Version 6.99
  
 Calculated polar for: NACA 6612                                       
  
 1 1 Reynolds number fixed          Mach number fixed         
  
 xtrf =   1.000 (top)        1.000 (bottom)  
 Mach =   0.000     Re =     0.400 e 6     Ncrit =   9.000
  
   alpha    CL        CD       CDp       CM     Top_Xtr  Bot_Xtr
  ------ -------- --------- --------- -------- -------- --------
   1.541   1.0000   0.01094   0.00600  -0.2139   0.8314   0.6375
