  
       XFOIL         Version 6.99
  
 Calculated polar for: NACA 7213                                       
  
 1 1 Reynolds number fixed          Mach number fixed         
  
 xtrf =   1.000 (top)        1.000 (bottom)  
 Mach =   0.000     Re =     0.400 e 6     Ncrit =   9.000
  
   alpha    CL        CD       CDp       CM     Top_Xtr  Bot_Xtr
  ------ -------- --------- --------- -------- -------- --------
   3.256   1.0000   0.01705   0.00772  -0.1036   0.2650   0.0845
