  
       XFOIL         Version 6.99
  
 Calculated polar for: NACA 4516                                       
  
 1 1 Reynolds number fixed          Mach number fixed         
  
 xtrf =   1.000 (top)        1.000 (bottom)  
 Mach =   0.000     Re =     0.400 e 6     Ncrit =   9.000
  
   alpha    CL        CD       CDp       CM     Top_Xtr  Bot_Xtr
  ------ -------- --------- --------- -------- -------- --------
   4.620   1.0000   0.01033   0.00479  -0.1134   0.5430   1.0000
